Circuit: * C:\Users\Matheus\Desktop\Topicos I\Trabalho_1\trabalho1.asc

.OP point found by inspection.
.step vgs=0
.step vgs=0.5
.step vgs=1
.step vgs=1.5
.step vgs=2
.step vgs=2.5
.step vgs=3
.step vgs=3.5
.step vgs=4
.step vgs=4.5
.step vgs=5

Date: Thu Mar 30 00:52:25 2017
Total elapsed time: 0.540 seconds.

tnom = 27
temp = 27
method = trap
totiter = 11056
traniter = 0
tranpoints = 0
accept = 0
rejected = 0
matrix size = 4
fillins = 0
solver = Normal
Matrix Compiler1:       7 opcodes  0.0/[0.0]/0.1
Matrix Compiler2: 216 bytes object code size  0.0/0.1/[0.0]


