Questionable use of curly braces in ".model sir870adp vdmos(rg=3 vto=2.9 rd=3.2m rs=1.5m rb={m} kp=100 mtriode=1.85 cgdmax=1.4n cgdmin=70p cgs=2.9n cjo=3.6n m=.4 a=.7 vj=.7 lambda=20m is=3p ksubthres=.08 mfg=siliconix vds=100 ron=5.5m qg=53.5n)"
    Error: undefined symbol in: "[m]"
Circuit: * Z:\home\francisco\Files\College-UFSC\6th semester\Tópicos Especiais I -Microeletronica\Trabalho-6 Amplificadores\Calculos\GM1\GM1.asc

Vinn: Missing value, assumed 0V @ DC

gm: d(id(m1))=4.41696e-005 at 0


Date: Wed Jun 28 17:09:26 2017
Total elapsed time: 0.339 seconds.

tnom = 27
temp = 27
method = trap
totiter = 100005
traniter = 0
tranpoints = 0
accept = 0
rejected = 0
matrix size = 6
fillins = 0
solver = Normal
Matrix Compiler1: 236 bytes object code size  0.3/0.3/[0.3]
Matrix Compiler2: 364 bytes object code size  0.3/0.3/[0.3]


