Circuit: .lib C:\users\francisco\My Documents\LTspiceXVII\lib\cmp\standard.mos

Direct Newton iteration failed to find .op point.  (Use ".option noopiter" to skip.)
Starting Gmin stepping
Gmin = 10
Gmin = 1.07374
Gmin = 0.115292
Gmin = 0.0123794
Gmin = 0.00132923
Gmin = 0.000142725
Gmin = 1.5325e-005
Gmin = 1.6455e-006
Gmin = 1.76685e-007
Gmin = 1.89714e-008
Gmin = 2.03704e-009
Gmin = 2.18725e-010
Gmin = 2.34854e-011
Gmin = 2.52173e-012
Gmin = 2.70769e-013
Gmin = 0
Gmin stepping succeeded in finding the operating point.


gain1hz: v(out)=(144.292dB,-43.2136°) at 1
freq0db: v(out)=(-2.01552e-005dB,173.422°) at 3.26885e+006


Date: Sat Jun 24 22:16:23 2017
Total elapsed time: 0.021 seconds.

tnom = 27
temp = 27
method = trap
totiter = 630
traniter = 0
tranpoints = 0
accept = 0
rejected = 0
matrix size = 11
fillins = 3
solver = Normal
Matrix Compiler1:      41 opcodes
Matrix Compiler2: off  [0.5]/0.6/0.7


