Circuit: * H:\googleDriver\ENC\8th Semester\Aquisição de Sinais\Relátorio Amplificador inversor e não-inversor\LTSPICE\Amplificador Comercial\lm741.asc

Direct Newton iteration failed to find .op point.  (Use ".option noopiter" to skip.)
Starting Gmin stepping
Gmin = 10
Gmin = 1.07374
vernier = 0.5
vernier = 0.25
vernier = 0.125
vernier = 0.0625
Gmin = 1.12184
vernier = 0.03125
vernier = 0.015625
Gmin = 1.05021
vernier = 0.0078125
Gmin = 1.02792
vernier = 0.0104167
vernier = 0.00520833
vernier = 0.00260417
Gmin = 1.02126
vernier = 0.00347222
vernier = 0.00173611
Gmin = 1.01661
vernier = 0.00231481
vernier = 0.00115741
Gmin = 1.01324
vernier = 0.00154321
vernier = 0.000771604
Gmin = 1.01099
vernier = 0.00102881
vernier = 0.000514403
Gmin = 1.00937
vernier = 0.00068587
vernier = 0.000914493
vernier = 0.000457247
Gmin = 1.00807
vernier = 0.000609662
vernier = 0.000457246
Gmin = 1.00715
vernier = 0.000609662
vernier = 0.000457246
Gmin = 0
Gmin = 0
Gmin stepping failed

Starting source stepping with srcstepmethod=0
Source Step = 3.0303%
Source Step = 33.3333%
Source Step = 63.6364%
Source Step = 93.9394%
Source Step = 98.2955%
Source stepping succeeded in finding the operating point.


Date: Sun Mar 25 11:37:53 2018
Total elapsed time: 1.756 seconds.

tnom = 27
temp = 27
method = modified trap
totiter = 210582
traniter = 202040
tranpoints = 101021
accept = 101021
rejected = 0
matrix size = 38
fillins = 51
solver = Normal
Matrix Compiler1: 4.06 KB object code size  1.7/1.4/[0.7]
Matrix Compiler2: 3.87 KB object code size  4.3/5.1/[3.5]

