Questionable use of curly braces in ".model sir870adp vdmos(rg=3 vto=2.9 rd=3.2m rs=1.5m rb={m} kp=100 mtriode=1.85 cgdmax=1.4n cgdmin=70p cgs=2.9n cjo=3.6n m=.4 a=.7 vj=.7 lambda=20m is=3p ksubthres=.08 mfg=siliconix vds=100 ron=5.5m qg=53.5n)"
    Error: undefined symbol in: "[m]"
Circuit: * Z:\home\francisco\Files\College-UFSC\6th semester\Tópicos Especiais I -Microeletronica\Trabalho-6 Amplificadores\Calculos\R7\R7.asc

Vout: Missing value, assumed 0V @ DC

id_p_1: id(m_p)=-1.08925e-005 at 1.08022
id_p_2: id(m_p)=-1.08929e-005 at 0.480223


Date: Wed Jun 28 18:14:59 2017
Total elapsed time: 0.342 seconds.

tnom = 27
temp = 27
method = trap
totiter = 100004
traniter = 0
tranpoints = 0
accept = 0
rejected = 0
matrix size = 6
fillins = 0
solver = Normal
Matrix Compiler1: 236 bytes object code size  0.3/0.3/[0.3]
Matrix Compiler2: 364 bytes object code size  0.3/0.4/[0.3]


