Circuit: * E:\googleDriver\ENC\8th Semester\Aquisiчуo de Sinais\Filtros de Primeira Ordem\ltspice\Parte1\passabaixa-corte1k.asc

.step run=1
.step run=2
.step run=3
.step run=4
.step run=5
.step run=6
.step run=7
.step run=8
.step run=9
.step run=10
.step run=11
.step run=12
.step run=13
.step run=14
.step run=15
.step run=16
.step run=17
.step run=18
.step run=19
.step run=20
.step run=21
.step run=22
.step run=23
.step run=24
.step run=25
.step run=26
.step run=27
.step run=28
.step run=29
.step run=30
.step run=31
.step run=32
.step run=33
.step run=34
.step run=35
.step run=36
.step run=37
.step run=38
.step run=39
.step run=40
.step run=41
.step run=42
.step run=43
.step run=44
.step run=45
.step run=46
.step run=47
.step run=48
.step run=49
.step run=50
.step run=51
.step run=52
.step run=53
.step run=54
.step run=55
.step run=56
.step run=57
.step run=58
.step run=59
.step run=60
.step run=61
.step run=62
.step run=63
.step run=64
.step run=65
.step run=66
.step run=67
.step run=68
.step run=69
.step run=70
.step run=71
.step run=72
.step run=73
.step run=74
.step run=75
.step run=76
.step run=77
.step run=78
.step run=79
.step run=80
.step run=81
.step run=82
.step run=83
.step run=84
.step run=85
.step run=86
.step run=87
.step run=88
.step run=89
.step run=90
.step run=91
.step run=92
.step run=93
.step run=94
.step run=95
.step run=96
.step run=97
.step run=98
.step run=99
.step run=100
.step run=101
.step run=102
.step run=103
.step run=104
.step run=105
.step run=106
.step run=107
.step run=108
.step run=109
.step run=110
.step run=111
.step run=112
.step run=113
.step run=114
.step run=115
.step run=116
.step run=117
.step run=118
.step run=119
.step run=120
.step run=121
.step run=122
.step run=123
.step run=124
.step run=125
.step run=126
.step run=127
.step run=128
.step run=129
.step run=130
.step run=131
.step run=132
.step run=133
.step run=134
.step run=135
.step run=136
.step run=137
.step run=138
.step run=139
.step run=140
.step run=141
.step run=142
.step run=143
.step run=144
.step run=145
.step run=146
.step run=147
.step run=148
.step run=149
.step run=150
.step run=151
.step run=152
.step run=153
.step run=154
.step run=155
.step run=156
.step run=157
.step run=158
.step run=159
.step run=160
.step run=161
.step run=162
.step run=163
.step run=164
.step run=165
.step run=166
.step run=167
.step run=168
.step run=169
.step run=170
.step run=171
.step run=172
.step run=173
.step run=174
.step run=175
.step run=176
.step run=177
.step run=178
.step run=179
.step run=180
.step run=181
.step run=182
.step run=183
.step run=184
.step run=185
.step run=186
.step run=187
.step run=188
.step run=189
.step run=190
.step run=191
.step run=192
.step run=193
.step run=194
.step run=195
.step run=196
.step run=197
.step run=198
.step run=199
.step run=200
.step run=201
.step run=202
.step run=203
.step run=204
.step run=205
.step run=206
.step run=207
.step run=208
.step run=209
.step run=210
.step run=211
.step run=212
.step run=213
.step run=214
.step run=215
.step run=216
.step run=217
.step run=218
.step run=219
.step run=220
.step run=221
.step run=222
.step run=223
.step run=224
.step run=225
.step run=226
.step run=227
.step run=228
.step run=229
.step run=230
.step run=231
.step run=232
.step run=233
.step run=234
.step run=235
.step run=236
.step run=237
.step run=238
.step run=239
.step run=240
.step run=241
.step run=242
.step run=243
.step run=244
.step run=245
.step run=246
.step run=247
.step run=248
.step run=249
.step run=250
.step run=251
.step run=252
.step run=253
.step run=254
.step run=255
.step run=256
.step run=257
.step run=258
.step run=259
.step run=260
.step run=261
.step run=262
.step run=263
.step run=264
.step run=265
.step run=266
.step run=267
.step run=268
.step run=269
.step run=270
.step run=271
.step run=272
.step run=273
.step run=274
.step run=275
.step run=276
.step run=277
.step run=278
.step run=279
.step run=280
.step run=281
.step run=282
.step run=283
.step run=284
.step run=285
.step run=286
.step run=287
.step run=288
.step run=289
.step run=290
.step run=291
.step run=292
.step run=293
.step run=294
.step run=295
.step run=296
.step run=297
.step run=298
.step run=299
.step run=300
.step run=301
.step run=302
.step run=303
.step run=304
.step run=305
.step run=306
.step run=307
.step run=308
.step run=309
.step run=310
.step run=311
.step run=312
.step run=313
.step run=314
.step run=315
.step run=316
.step run=317
.step run=318
.step run=319
.step run=320
.step run=321
.step run=322
.step run=323
.step run=324
.step run=325
.step run=326
.step run=327
.step run=328
.step run=329
.step run=330
.step run=331
.step run=332
.step run=333
.step run=334
.step run=335
.step run=336
.step run=337
.step run=338
.step run=339
.step run=340
.step run=341
.step run=342
.step run=343
.step run=344
.step run=345
.step run=346
.step run=347
.step run=348
.step run=349
.step run=350
.step run=351
.step run=352
.step run=353
.step run=354
.step run=355
.step run=356
.step run=357
.step run=358
.step run=359
.step run=360
.step run=361
.step run=362
.step run=363
.step run=364
.step run=365
.step run=366
.step run=367
.step run=368
.step run=369
.step run=370
.step run=371
.step run=372
.step run=373
.step run=374
.step run=375
.step run=376
.step run=377
.step run=378
.step run=379
.step run=380
.step run=381
.step run=382
.step run=383
.step run=384
.step run=385
.step run=386
.step run=387
.step run=388
.step run=389
.step run=390
.step run=391
.step run=392
.step run=393
.step run=394
.step run=395
.step run=396
.step run=397
.step run=398
.step run=399
.step run=400
.step run=401
.step run=402
.step run=403
.step run=404
.step run=405
.step run=406
.step run=407
.step run=408
.step run=409
.step run=410
.step run=411
.step run=412
.step run=413
.step run=414
.step run=415
.step run=416
.step run=417
.step run=418
.step run=419
.step run=420
.step run=421
.step run=422
.step run=423
.step run=424
.step run=425
.step run=426
.step run=427
.step run=428
.step run=429
.step run=430
.step run=431
.step run=432
.step run=433
.step run=434
.step run=435
.step run=436
.step run=437
.step run=438
.step run=439
.step run=440
.step run=441
.step run=442
.step run=443
.step run=444
.step run=445
.step run=446
.step run=447
.step run=448
.step run=449
.step run=450
.step run=451
.step run=452
.step run=453
.step run=454
.step run=455
.step run=456
.step run=457
.step run=458
.step run=459
.step run=460
.step run=461
.step run=462
.step run=463
.step run=464
.step run=465
.step run=466
.step run=467
.step run=468
.step run=469
.step run=470
.step run=471
.step run=472
.step run=473
.step run=474
.step run=475
.step run=476
.step run=477
.step run=478
.step run=479
.step run=480
.step run=481
.step run=482
.step run=483
.step run=484
.step run=485
.step run=486
.step run=487
.step run=488
.step run=489
.step run=490
.step run=491
.step run=492
.step run=493
.step run=494
.step run=495
.step run=496
.step run=497
.step run=498
.step run=499
.step run=500


Measurement: gain
  step	MAX(mag(v(out)))	FROM	TO
     1	(39.914dB,0А)	1	1e+007
     2	(40.1409dB,0А)	1	1e+007
     3	(39.7948dB,0А)	1	1e+007
     4	(39.9511dB,0А)	1	1e+007
     5	(40.1756dB,0А)	1	1e+007
     6	(39.845dB,0А)	1	1e+007
     7	(39.635dB,0А)	1	1e+007
     8	(40.1933dB,0А)	1	1e+007
     9	(39.7695dB,0А)	1	1e+007
    10	(39.9836dB,0А)	1	1e+007
    11	(39.8744dB,0А)	1	1e+007
    12	(39.888dB,0А)	1	1e+007
    13	(40.1127dB,0А)	1	1e+007
    14	(39.8148dB,0А)	1	1e+007
    15	(40.1778dB,0А)	1	1e+007
    16	(39.9581dB,0А)	1	1e+007
    17	(40.0344dB,0А)	1	1e+007
    18	(39.9328dB,0А)	1	1e+007
    19	(40.1495dB,0А)	1	1e+007
    20	(40.12dB,0А)	1	1e+007
    21	(39.8684dB,0А)	1	1e+007
    22	(39.6243dB,0А)	1	1e+007
    23	(39.8632dB,0А)	1	1e+007
    24	(39.9839dB,0А)	1	1e+007
    25	(39.8874dB,0А)	1	1e+007
    26	(39.7925dB,0А)	1	1e+007
    27	(40.0617dB,0А)	1	1e+007
    28	(39.9019dB,0А)	1	1e+007
    29	(40.1831dB,0А)	1	1e+007
    30	(39.7484dB,0А)	1	1e+007
    31	(39.898dB,0А)	1	1e+007
    32	(39.8637dB,0А)	1	1e+007
    33	(39.9093dB,0А)	1	1e+007
    34	(39.8081dB,0А)	1	1e+007
    35	(39.7587dB,0А)	1	1e+007
    36	(40.1018dB,0А)	1	1e+007
    37	(40.3513dB,0А)	1	1e+007
    38	(40.1259dB,0А)	1	1e+007
    39	(39.7274dB,0А)	1	1e+007
    40	(39.9867dB,0А)	1	1e+007
    41	(40.1955dB,0А)	1	1e+007
    42	(39.9185dB,0А)	1	1e+007
    43	(40.2602dB,0А)	1	1e+007
    44	(40.1458dB,0А)	1	1e+007
    45	(40.0386dB,0А)	1	1e+007
    46	(39.6446dB,0А)	1	1e+007
    47	(40.0329dB,0А)	1	1e+007
    48	(40.0245dB,0А)	1	1e+007
    49	(39.7728dB,0А)	1	1e+007
    50	(39.8817dB,0А)	1	1e+007
    51	(39.7199dB,0А)	1	1e+007
    52	(39.7868dB,0А)	1	1e+007
    53	(39.76dB,0А)	1	1e+007
    54	(39.9356dB,0А)	1	1e+007
    55	(40.0786dB,0А)	1	1e+007
    56	(40.032dB,0А)	1	1e+007
    57	(39.9092dB,0А)	1	1e+007
    58	(40.2599dB,0А)	1	1e+007
    59	(39.6974dB,0А)	1	1e+007
    60	(39.9823dB,0А)	1	1e+007
    61	(40.1102dB,0А)	1	1e+007
    62	(39.6546dB,0А)	1	1e+007
    63	(39.8494dB,0А)	1	1e+007
    64	(39.8054dB,0А)	1	1e+007
    65	(40.0891dB,0А)	1	1e+007
    66	(39.9425dB,0А)	1	1e+007
    67	(40.1114dB,0А)	1	1e+007
    68	(39.868dB,0А)	1	1e+007
    69	(40.053dB,0А)	1	1e+007
    70	(40.0154dB,0А)	1	1e+007
    71	(40.0042dB,0А)	1	1e+007
    72	(39.9979dB,0А)	1	1e+007
    73	(40.0005dB,0А)	1	1e+007
    74	(40.1704dB,0А)	1	1e+007
    75	(40.288dB,0А)	1	1e+007
    76	(40.2456dB,0А)	1	1e+007
    77	(40.0756dB,0А)	1	1e+007
    78	(39.9262dB,0А)	1	1e+007
    79	(40.0978dB,0А)	1	1e+007
    80	(40.1489dB,0А)	1	1e+007
    81	(39.837dB,0А)	1	1e+007
    82	(40.3094dB,0А)	1	1e+007
    83	(40.0078dB,0А)	1	1e+007
    84	(40.1185dB,0А)	1	1e+007
    85	(40.0509dB,0А)	1	1e+007
    86	(40.2354dB,0А)	1	1e+007
    87	(39.8552dB,0А)	1	1e+007
    88	(40.2494dB,0А)	1	1e+007
    89	(40.1524dB,0А)	1	1e+007
    90	(40.1719dB,0А)	1	1e+007
    91	(39.6763dB,0А)	1	1e+007
    92	(40.1801dB,0А)	1	1e+007
    93	(39.7535dB,0А)	1	1e+007
    94	(40.1595dB,0А)	1	1e+007
    95	(39.9745dB,0А)	1	1e+007
    96	(40.0768dB,0А)	1	1e+007
    97	(39.9611dB,0А)	1	1e+007
    98	(40.099dB,0А)	1	1e+007
    99	(40.0753dB,0А)	1	1e+007
   100	(39.7978dB,0А)	1	1e+007
   101	(40.2344dB,0А)	1	1e+007
   102	(40.2383dB,0А)	1	1e+007
   103	(39.9451dB,0А)	1	1e+007
   104	(39.8854dB,0А)	1	1e+007
   105	(40.0728dB,0А)	1	1e+007
   106	(39.82dB,0А)	1	1e+007
   107	(39.9218dB,0А)	1	1e+007
   108	(40.0587dB,0А)	1	1e+007
   109	(39.957dB,0А)	1	1e+007
   110	(40.0561dB,0А)	1	1e+007
   111	(40.1581dB,0А)	1	1e+007
   112	(40.1844dB,0А)	1	1e+007
   113	(40.3364dB,0А)	1	1e+007
   114	(39.8393dB,0А)	1	1e+007
   115	(40.4006dB,0А)	1	1e+007
   116	(39.8647dB,0А)	1	1e+007
   117	(39.6809dB,0А)	1	1e+007
   118	(39.8887dB,0А)	1	1e+007
   119	(39.696dB,0А)	1	1e+007
   120	(40.2404dB,0А)	1	1e+007
   121	(39.9235dB,0А)	1	1e+007
   122	(39.8507dB,0А)	1	1e+007
   123	(40.1179dB,0А)	1	1e+007
   124	(39.875dB,0А)	1	1e+007
   125	(39.886dB,0А)	1	1e+007
   126	(39.7386dB,0А)	1	1e+007
   127	(39.7769dB,0А)	1	1e+007
   128	(40.0328dB,0А)	1	1e+007
   129	(39.7841dB,0А)	1	1e+007
   130	(39.7148dB,0А)	1	1e+007
   131	(40.0638dB,0А)	1	1e+007
   132	(39.8955dB,0А)	1	1e+007
   133	(39.9987dB,0А)	1	1e+007
   134	(39.6816dB,0А)	1	1e+007
   135	(39.7925dB,0А)	1	1e+007
   136	(40.0727dB,0А)	1	1e+007
   137	(40.3224dB,0А)	1	1e+007
   138	(40.019dB,0А)	1	1e+007
   139	(39.8715dB,0А)	1	1e+007
   140	(40.2066dB,0А)	1	1e+007
   141	(40.1759dB,0А)	1	1e+007
   142	(40.191dB,0А)	1	1e+007
   143	(39.8828dB,0А)	1	1e+007
   144	(40.3076dB,0А)	1	1e+007
   145	(39.9567dB,0А)	1	1e+007
   146	(40.0225dB,0А)	1	1e+007
   147	(39.7384dB,0А)	1	1e+007
   148	(40.2792dB,0А)	1	1e+007
   149	(40.0957dB,0А)	1	1e+007
   150	(39.8942dB,0А)	1	1e+007
   151	(40.0179dB,0А)	1	1e+007
   152	(39.9388dB,0А)	1	1e+007
   153	(40.1687dB,0А)	1	1e+007
   154	(39.9612dB,0А)	1	1e+007
   155	(39.7305dB,0А)	1	1e+007
   156	(40.0658dB,0А)	1	1e+007
   157	(40.2897dB,0А)	1	1e+007
   158	(39.7917dB,0А)	1	1e+007
   159	(39.9661dB,0А)	1	1e+007
   160	(40.2339dB,0А)	1	1e+007
   161	(39.7128dB,0А)	1	1e+007
   162	(39.8518dB,0А)	1	1e+007
   163	(39.9585dB,0А)	1	1e+007
   164	(40.0433dB,0А)	1	1e+007
   165	(40.0908dB,0А)	1	1e+007
   166	(40.1488dB,0А)	1	1e+007
   167	(40.1194dB,0А)	1	1e+007
   168	(40.0011dB,0А)	1	1e+007
   169	(39.6816dB,0А)	1	1e+007
   170	(40.0671dB,0А)	1	1e+007
   171	(39.8862dB,0А)	1	1e+007
   172	(39.9088dB,0А)	1	1e+007
   173	(39.816dB,0А)	1	1e+007
   174	(39.9476dB,0А)	1	1e+007
   175	(40.1401dB,0А)	1	1e+007
   176	(40.1578dB,0А)	1	1e+007
   177	(40.315dB,0А)	1	1e+007
   178	(40.1393dB,0А)	1	1e+007
   179	(39.8044dB,0А)	1	1e+007
   180	(39.894dB,0А)	1	1e+007
   181	(40.0186dB,0А)	1	1e+007
   182	(40.2751dB,0А)	1	1e+007
   183	(40.2393dB,0А)	1	1e+007
   184	(40.0381dB,0А)	1	1e+007
   185	(39.9763dB,0А)	1	1e+007
   186	(40.1828dB,0А)	1	1e+007
   187	(39.7244dB,0А)	1	1e+007
   188	(39.9196dB,0А)	1	1e+007
   189	(39.7791dB,0А)	1	1e+007
   190	(39.885dB,0А)	1	1e+007
   191	(39.8294dB,0А)	1	1e+007
   192	(40.2592dB,0А)	1	1e+007
   193	(39.7899dB,0А)	1	1e+007
   194	(40.1682dB,0А)	1	1e+007
   195	(39.9577dB,0А)	1	1e+007
   196	(40.0337dB,0А)	1	1e+007
   197	(40.2647dB,0А)	1	1e+007
   198	(39.8761dB,0А)	1	1e+007
   199	(40.0716dB,0А)	1	1e+007
   200	(39.8774dB,0А)	1	1e+007
   201	(40.0124dB,0А)	1	1e+007
   202	(40.0301dB,0А)	1	1e+007
   203	(40.0207dB,0А)	1	1e+007
   204	(40.0011dB,0А)	1	1e+007
   205	(40.0197dB,0А)	1	1e+007
   206	(40.1309dB,0А)	1	1e+007
   207	(39.9461dB,0А)	1	1e+007
   208	(39.6836dB,0А)	1	1e+007
   209	(39.88dB,0А)	1	1e+007
   210	(39.7799dB,0А)	1	1e+007
   211	(40.0881dB,0А)	1	1e+007
   212	(39.7437dB,0А)	1	1e+007
   213	(40.2486dB,0А)	1	1e+007
   214	(40.0757dB,0А)	1	1e+007
   215	(40.1226dB,0А)	1	1e+007
   216	(40.2595dB,0А)	1	1e+007
   217	(39.639dB,0А)	1	1e+007
   218	(40.0886dB,0А)	1	1e+007
   219	(39.8859dB,0А)	1	1e+007
   220	(40.2197dB,0А)	1	1e+007
   221	(40.0862dB,0А)	1	1e+007
   222	(39.9017dB,0А)	1	1e+007
   223	(40.2891dB,0А)	1	1e+007
   224	(40.0146dB,0А)	1	1e+007
   225	(39.9569dB,0А)	1	1e+007
   226	(39.7753dB,0А)	1	1e+007
   227	(40.1531dB,0А)	1	1e+007
   228	(39.9723dB,0А)	1	1e+007
   229	(39.7385dB,0А)	1	1e+007
   230	(40.0259dB,0А)	1	1e+007
   231	(40.0042dB,0А)	1	1e+007
   232	(39.7962dB,0А)	1	1e+007
   233	(40.0309dB,0А)	1	1e+007
   234	(39.8587dB,0А)	1	1e+007
   235	(40.2361dB,0А)	1	1e+007
   236	(39.9178dB,0А)	1	1e+007
   237	(39.6519dB,0А)	1	1e+007
   238	(39.7032dB,0А)	1	1e+007
   239	(39.9547dB,0А)	1	1e+007
   240	(40.0509dB,0А)	1	1e+007
   241	(40.06dB,0А)	1	1e+007
   242	(40.1882dB,0А)	1	1e+007
   243	(40.411dB,0А)	1	1e+007
   244	(40.3142dB,0А)	1	1e+007
   245	(39.7211dB,0А)	1	1e+007
   246	(39.9671dB,0А)	1	1e+007
   247	(39.7334dB,0А)	1	1e+007
   248	(39.7666dB,0А)	1	1e+007
   249	(40.2104dB,0А)	1	1e+007
   250	(40.0161dB,0А)	1	1e+007
   251	(40.3365dB,0А)	1	1e+007
   252	(39.9076dB,0А)	1	1e+007
   253	(40.2462dB,0А)	1	1e+007
   254	(40.0494dB,0А)	1	1e+007
   255	(39.9806dB,0А)	1	1e+007
   256	(40.1651dB,0А)	1	1e+007
   257	(40.0367dB,0А)	1	1e+007
   258	(40.2829dB,0А)	1	1e+007
   259	(39.6616dB,0А)	1	1e+007
   260	(39.8574dB,0А)	1	1e+007
   261	(40.2301dB,0А)	1	1e+007
   262	(39.9097dB,0А)	1	1e+007
   263	(39.7236dB,0А)	1	1e+007
   264	(39.7436dB,0А)	1	1e+007
   265	(40.0819dB,0А)	1	1e+007
   266	(39.8305dB,0А)	1	1e+007
   267	(39.9478dB,0А)	1	1e+007
   268	(39.8498dB,0А)	1	1e+007
   269	(40.0702dB,0А)	1	1e+007
   270	(40.1292dB,0А)	1	1e+007
   271	(39.838dB,0А)	1	1e+007
   272	(40.1285dB,0А)	1	1e+007
   273	(39.9717dB,0А)	1	1e+007
   274	(39.8688dB,0А)	1	1e+007
   275	(40.0513dB,0А)	1	1e+007
   276	(39.8159dB,0А)	1	1e+007
   277	(39.8915dB,0А)	1	1e+007
   278	(40.0788dB,0А)	1	1e+007
   279	(39.9238dB,0А)	1	1e+007
   280	(40.2343dB,0А)	1	1e+007
   281	(40.0156dB,0А)	1	1e+007
   282	(40.1835dB,0А)	1	1e+007
   283	(39.7881dB,0А)	1	1e+007
   284	(39.9903dB,0А)	1	1e+007
   285	(40.0445dB,0А)	1	1e+007
   286	(40.0022dB,0А)	1	1e+007
   287	(40.0469dB,0А)	1	1e+007
   288	(39.9697dB,0А)	1	1e+007
   289	(40.1861dB,0А)	1	1e+007
   290	(40.1487dB,0А)	1	1e+007
   291	(40.0971dB,0А)	1	1e+007
   292	(40.0235dB,0А)	1	1e+007
   293	(39.8676dB,0А)	1	1e+007
   294	(40.0409dB,0А)	1	1e+007
   295	(39.8041dB,0А)	1	1e+007
   296	(40.0378dB,0А)	1	1e+007
   297	(39.9633dB,0А)	1	1e+007
   298	(40.1164dB,0А)	1	1e+007
   299	(39.7656dB,0А)	1	1e+007
   300	(40.3091dB,0А)	1	1e+007
   301	(40.3606dB,0А)	1	1e+007
   302	(40.1526dB,0А)	1	1e+007
   303	(40.0203dB,0А)	1	1e+007
   304	(39.9874dB,0А)	1	1e+007
   305	(39.9339dB,0А)	1	1e+007
   306	(40.2657dB,0А)	1	1e+007
   307	(39.9188dB,0А)	1	1e+007
   308	(40.2609dB,0А)	1	1e+007
   309	(39.9154dB,0А)	1	1e+007
   310	(40.0015dB,0А)	1	1e+007
   311	(40.1138dB,0А)	1	1e+007
   312	(39.7501dB,0А)	1	1e+007
   313	(40.3308dB,0А)	1	1e+007
   314	(39.8468dB,0А)	1	1e+007
   315	(39.8747dB,0А)	1	1e+007
   316	(40.0635dB,0А)	1	1e+007
   317	(40.0268dB,0А)	1	1e+007
   318	(39.7486dB,0А)	1	1e+007
   319	(40.2125dB,0А)	1	1e+007
   320	(40.3068dB,0А)	1	1e+007
   321	(40.0124dB,0А)	1	1e+007
   322	(40.3335dB,0А)	1	1e+007
   323	(39.9211dB,0А)	1	1e+007
   324	(40.2456dB,0А)	1	1e+007
   325	(40.1499dB,0А)	1	1e+007
   326	(39.949dB,0А)	1	1e+007
   327	(40.2609dB,0А)	1	1e+007
   328	(40.0102dB,0А)	1	1e+007
   329	(39.8034dB,0А)	1	1e+007
   330	(39.9127dB,0А)	1	1e+007
   331	(39.7487dB,0А)	1	1e+007
   332	(39.9708dB,0А)	1	1e+007
   333	(39.9262dB,0А)	1	1e+007
   334	(40.1433dB,0А)	1	1e+007
   335	(39.9634dB,0А)	1	1e+007
   336	(40.0205dB,0А)	1	1e+007
   337	(39.7195dB,0А)	1	1e+007
   338	(40.1185dB,0А)	1	1e+007
   339	(39.9359dB,0А)	1	1e+007
   340	(40.0742dB,0А)	1	1e+007
   341	(40.1486dB,0А)	1	1e+007
   342	(40.0765dB,0А)	1	1e+007
   343	(40.0552dB,0А)	1	1e+007
   344	(40.2003dB,0А)	1	1e+007
   345	(39.7016dB,0А)	1	1e+007
   346	(40.3096dB,0А)	1	1e+007
   347	(39.96dB,0А)	1	1e+007
   348	(40.0417dB,0А)	1	1e+007
   349	(39.7661dB,0А)	1	1e+007
   350	(40.0487dB,0А)	1	1e+007
   351	(40.0955dB,0А)	1	1e+007
   352	(39.7836dB,0А)	1	1e+007
   353	(39.89dB,0А)	1	1e+007
   354	(40.3795dB,0А)	1	1e+007
   355	(40.0915dB,0А)	1	1e+007
   356	(40.2046dB,0А)	1	1e+007
   357	(39.8571dB,0А)	1	1e+007
   358	(39.9279dB,0А)	1	1e+007
   359	(40.1473dB,0А)	1	1e+007
   360	(40.1924dB,0А)	1	1e+007
   361	(40.0534dB,0А)	1	1e+007
   362	(40.0378dB,0А)	1	1e+007
   363	(40.29dB,0А)	1	1e+007
   364	(40.0037dB,0А)	1	1e+007
   365	(39.8092dB,0А)	1	1e+007
   366	(39.932dB,0А)	1	1e+007
   367	(39.8807dB,0А)	1	1e+007
   368	(40.0792dB,0А)	1	1e+007
   369	(40.2959dB,0А)	1	1e+007
   370	(40.2231dB,0А)	1	1e+007
   371	(39.9334dB,0А)	1	1e+007
   372	(40.1801dB,0А)	1	1e+007
   373	(39.9769dB,0А)	1	1e+007
   374	(40.1113dB,0А)	1	1e+007
   375	(39.8334dB,0А)	1	1e+007
   376	(39.893dB,0А)	1	1e+007
   377	(40.0464dB,0А)	1	1e+007
   378	(39.7309dB,0А)	1	1e+007
   379	(40.1649dB,0А)	1	1e+007
   380	(39.7418dB,0А)	1	1e+007
   381	(40.0206dB,0А)	1	1e+007
   382	(39.81dB,0А)	1	1e+007
   383	(40.07dB,0А)	1	1e+007
   384	(39.9269dB,0А)	1	1e+007
   385	(40.078dB,0А)	1	1e+007
   386	(39.7277dB,0А)	1	1e+007
   387	(40.162dB,0А)	1	1e+007
   388	(39.8982dB,0А)	1	1e+007
   389	(39.8373dB,0А)	1	1e+007
   390	(39.7277dB,0А)	1	1e+007
   391	(40.1338dB,0А)	1	1e+007
   392	(40.1347dB,0А)	1	1e+007
   393	(39.7547dB,0А)	1	1e+007
   394	(39.9047dB,0А)	1	1e+007
   395	(40.3741dB,0А)	1	1e+007
   396	(40.16dB,0А)	1	1e+007
   397	(40.0612dB,0А)	1	1e+007
   398	(39.6843dB,0А)	1	1e+007
   399	(39.8719dB,0А)	1	1e+007
   400	(39.907dB,0А)	1	1e+007
   401	(39.9172dB,0А)	1	1e+007
   402	(39.9512dB,0А)	1	1e+007
   403	(40.0487dB,0А)	1	1e+007
   404	(40.0858dB,0А)	1	1e+007
   405	(39.9697dB,0А)	1	1e+007
   406	(39.8033dB,0А)	1	1e+007
   407	(39.8477dB,0А)	1	1e+007
   408	(40.0586dB,0А)	1	1e+007
   409	(40.1389dB,0А)	1	1e+007
   410	(39.6484dB,0А)	1	1e+007
   411	(40.0587dB,0А)	1	1e+007
   412	(39.7301dB,0А)	1	1e+007
   413	(40.147dB,0А)	1	1e+007
   414	(39.9956dB,0А)	1	1e+007
   415	(39.9757dB,0А)	1	1e+007
   416	(39.9984dB,0А)	1	1e+007
   417	(40.2988dB,0А)	1	1e+007
   418	(39.8781dB,0А)	1	1e+007
   419	(40.0111dB,0А)	1	1e+007
   420	(39.6552dB,0А)	1	1e+007
   421	(39.9563dB,0А)	1	1e+007
   422	(39.8569dB,0А)	1	1e+007
   423	(40.3581dB,0А)	1	1e+007
   424	(39.7178dB,0А)	1	1e+007
   425	(40.0088dB,0А)	1	1e+007
   426	(40.1169dB,0А)	1	1e+007
   427	(40.1689dB,0А)	1	1e+007
   428	(40.0937dB,0А)	1	1e+007
   429	(40.2015dB,0А)	1	1e+007
   430	(39.8724dB,0А)	1	1e+007
   431	(39.9454dB,0А)	1	1e+007
   432	(40.008dB,0А)	1	1e+007
   433	(40.2003dB,0А)	1	1e+007
   434	(39.8904dB,0А)	1	1e+007
   435	(39.8927dB,0А)	1	1e+007
   436	(40.0727dB,0А)	1	1e+007
   437	(39.7258dB,0А)	1	1e+007
   438	(40.0375dB,0А)	1	1e+007
   439	(39.9647dB,0А)	1	1e+007
   440	(39.6533dB,0А)	1	1e+007
   441	(39.9369dB,0А)	1	1e+007
   442	(39.7372dB,0А)	1	1e+007
   443	(39.9869dB,0А)	1	1e+007
   444	(40.0337dB,0А)	1	1e+007
   445	(40.2611dB,0А)	1	1e+007
   446	(40.1762dB,0А)	1	1e+007
   447	(39.9696dB,0А)	1	1e+007
   448	(40.0099dB,0А)	1	1e+007
   449	(40.1559dB,0А)	1	1e+007
   450	(39.6152dB,0А)	1	1e+007
   451	(40.2669dB,0А)	1	1e+007
   452	(39.6959dB,0А)	1	1e+007
   453	(39.9781dB,0А)	1	1e+007
   454	(39.8475dB,0А)	1	1e+007
   455	(39.9757dB,0А)	1	1e+007
   456	(40.0164dB,0А)	1	1e+007
   457	(40.0765dB,0А)	1	1e+007
   458	(40.3052dB,0А)	1	1e+007
   459	(39.7436dB,0А)	1	1e+007
   460	(40.2122dB,0А)	1	1e+007
   461	(40.068dB,0А)	1	1e+007
   462	(40.0102dB,0А)	1	1e+007
   463	(39.9827dB,0А)	1	1e+007
   464	(39.905dB,0А)	1	1e+007
   465	(40.0579dB,0А)	1	1e+007
   466	(40.0729dB,0А)	1	1e+007
   467	(39.8254dB,0А)	1	1e+007
   468	(39.8628dB,0А)	1	1e+007
   469	(40.0332dB,0А)	1	1e+007
   470	(39.861dB,0А)	1	1e+007
   471	(39.9316dB,0А)	1	1e+007
   472	(40.1355dB,0А)	1	1e+007
   473	(39.7331dB,0А)	1	1e+007
   474	(40.0097dB,0А)	1	1e+007
   475	(39.7365dB,0А)	1	1e+007
   476	(40.1403dB,0А)	1	1e+007
   477	(39.9285dB,0А)	1	1e+007
   478	(40.2264dB,0А)	1	1e+007
   479	(40.1032dB,0А)	1	1e+007
   480	(39.8693dB,0А)	1	1e+007
   481	(40.0322dB,0А)	1	1e+007
   482	(40.2251dB,0А)	1	1e+007
   483	(39.7246dB,0А)	1	1e+007
   484	(40.12dB,0А)	1	1e+007
   485	(39.9863dB,0А)	1	1e+007
   486	(39.9955dB,0А)	1	1e+007
   487	(40.2042dB,0А)	1	1e+007
   488	(39.8222dB,0А)	1	1e+007
   489	(40.4092dB,0А)	1	1e+007
   490	(39.982dB,0А)	1	1e+007
   491	(39.9201dB,0А)	1	1e+007
   492	(39.9378dB,0А)	1	1e+007
   493	(40.2701dB,0А)	1	1e+007
   494	(39.9234dB,0А)	1	1e+007
   495	(39.767dB,0А)	1	1e+007
   496	(39.8888dB,0А)	1	1e+007
   497	(40.0147dB,0А)	1	1e+007
   498	(39.992dB,0А)	1	1e+007
   499	(40.1049dB,0А)	1	1e+007
   500	(39.9487dB,0А)	1	1e+007

Measurement: meas_3db
  step	meas_3db	FROM	TO
     1	9.99898e+006	1024.95	1e+007
     2	9.99902e+006	982.43	1e+007
     3	9.99901e+006	989.495	1e+007
     4	9.99899e+006	1005.65	1e+007
     5	9.99901e+006	990.396	1e+007
     6	9.99895e+006	1049.98	1e+007
     7	9.99896e+006	1038.53	1e+007
     8	9.99898e+006	1024.81	1e+007
     9	9.99897e+006	1034.58	1e+007
    10	9.99901e+006	992.788	1e+007
    11	9.99899e+006	1010.53	1e+007
    12	9.99897e+006	1033.32	1e+007
    13	9.99903e+006	973.477	1e+007
    14	9.99901e+006	992.745	1e+007
    15	9.99904e+006	959.952	1e+007
    16	9.99898e+006	1022.64	1e+007
    17	9.999e+006	997.849	1e+007
    18	9.99904e+006	961.831	1e+007
    19	9.999e+006	1000.98	1e+007
    20	9.99901e+006	994.649	1e+007
    21	9.99897e+006	1030.06	1e+007
    22	9.99895e+006	1052.28	1e+007
    23	9.99897e+006	1025.61	1e+007
    24	9.99902e+006	976.13	1e+007
    25	9.99898e+006	1017.95	1e+007
    26	9.99899e+006	1005.12	1e+007
    27	9.99899e+006	1009.37	1e+007
    28	9.999e+006	995.361	1e+007
    29	9.999e+006	1004.76	1e+007
    30	9.99898e+006	1020.1	1e+007
    31	9.99902e+006	977.25	1e+007
    32	9.99897e+006	1027.5	1e+007
    33	9.99897e+006	1025.37	1e+007
    34	9.99898e+006	1020.05	1e+007
    35	9.999e+006	999.141	1e+007
    36	9.99898e+006	1015.78	1e+007
    37	9.99903e+006	970.583	1e+007
    38	9.99903e+006	968.281	1e+007
    39	9.99896e+006	1035.45	1e+007
    40	9.99898e+006	1021.21	1e+007
    41	9.99901e+006	994.53	1e+007
    42	9.99901e+006	989.106	1e+007
    43	9.99901e+006	991.678	1e+007
    44	9.99901e+006	991.519	1e+007
    45	9.99901e+006	992.467	1e+007
    46	9.999e+006	998.867	1e+007
    47	9.99899e+006	1006.81	1e+007
    48	9.99901e+006	990.6	1e+007
    49	9.99898e+006	1015.87	1e+007
    50	9.999e+006	999.374	1e+007
    51	9.999e+006	1003.67	1e+007
    52	9.99899e+006	1006.63	1e+007
    53	9.999e+006	1000.59	1e+007
    54	9.99898e+006	1023.96	1e+007
    55	9.99902e+006	978.883	1e+007
    56	9.999e+006	999.363	1e+007
    57	9.99899e+006	1009.35	1e+007
    58	9.99901e+006	990.479	1e+007
    59	9.99899e+006	1008.22	1e+007
    60	9.99901e+006	986.412	1e+007
    61	9.99897e+006	1033.92	1e+007
    62	9.99899e+006	1008.68	1e+007
    63	9.99896e+006	1037.83	1e+007
    64	9.99895e+006	1048.78	1e+007
    65	9.99902e+006	980.322	1e+007
    66	9.99897e+006	1027.79	1e+007
    67	9.999e+006	1001.99	1e+007
    68	9.99899e+006	1011.47	1e+007
    69	9.99899e+006	1012.7	1e+007
    70	9.99903e+006	970.16	1e+007
    71	9.99897e+006	1026.88	1e+007
    72	9.99902e+006	979.821	1e+007
    73	9.99898e+006	1016.33	1e+007
    74	9.99902e+006	983.688	1e+007
    75	9.99901e+006	992.453	1e+007
    76	9.99901e+006	992.543	1e+007
    77	9.99901e+006	989.986	1e+007
    78	9.999e+006	997.97	1e+007
    79	9.99903e+006	968.983	1e+007
    80	9.99901e+006	987.435	1e+007
    81	9.99899e+006	1005.55	1e+007
    82	9.99901e+006	994.236	1e+007
    83	9.99901e+006	986.646	1e+007
    84	9.99899e+006	1009.49	1e+007
    85	9.99902e+006	984.325	1e+007
    86	9.99902e+006	977.664	1e+007
    87	9.99902e+006	980.114	1e+007
    88	9.99902e+006	984.813	1e+007
    89	9.99903e+006	970.841	1e+007
    90	9.99899e+006	1007.94	1e+007
    91	9.999e+006	1002.75	1e+007
    92	9.99899e+006	1006.82	1e+007
    93	9.99895e+006	1047.23	1e+007
    94	9.99902e+006	983.785	1e+007
    95	9.99898e+006	1016.96	1e+007
    96	9.99898e+006	1019.97	1e+007
    97	9.999e+006	998.654	1e+007
    98	9.99904e+006	962.188	1e+007
    99	9.99901e+006	989.67	1e+007
   100	9.99899e+006	1009.55	1e+007
   101	9.99903e+006	974.478	1e+007
   102	9.99902e+006	976.116	1e+007
   103	9.99898e+006	1022.39	1e+007
   104	9.99901e+006	991.253	1e+007
   105	9.99899e+006	1013.38	1e+007
   106	9.99899e+006	1007.85	1e+007
   107	9.99899e+006	1007	1e+007
   108	9.99901e+006	994.429	1e+007
   109	9.99898e+006	1016.96	1e+007
   110	9.99902e+006	978.122	1e+007
   111	9.99901e+006	989.456	1e+007
   112	9.99901e+006	985.034	1e+007
   113	9.99903e+006	973.51	1e+007
   114	9.99897e+006	1027.99	1e+007
   115	9.99903e+006	974.572	1e+007
   116	9.99897e+006	1034.59	1e+007
   117	9.999e+006	1002.64	1e+007
   118	9.99901e+006	985.93	1e+007
   119	9.99895e+006	1048.06	1e+007
   120	9.99899e+006	1010.18	1e+007
   121	9.99899e+006	1012.47	1e+007
   122	9.99898e+006	1018.08	1e+007
   123	9.99903e+006	972.4	1e+007
   124	9.99902e+006	981.693	1e+007
   125	9.99899e+006	1013.46	1e+007
   126	9.99897e+006	1034.3	1e+007
   127	9.99897e+006	1028.7	1e+007
   128	9.99899e+006	1009.27	1e+007
   129	9.99897e+006	1032.58	1e+007
   130	9.99897e+006	1032.73	1e+007
   131	9.99903e+006	968.93	1e+007
   132	9.999e+006	1002.47	1e+007
   133	9.999e+006	996.87	1e+007
   134	9.99899e+006	1012.44	1e+007
   135	9.99895e+006	1048.38	1e+007
   136	9.99897e+006	1027.18	1e+007
   137	9.999e+006	995.358	1e+007
   138	9.999e+006	998.704	1e+007
   139	9.99895e+006	1050.01	1e+007
   140	9.99901e+006	986.325	1e+007
   141	9.99904e+006	964.427	1e+007
   142	9.99902e+006	975.816	1e+007
   143	9.99896e+006	1041.32	1e+007
   144	9.99902e+006	984.465	1e+007
   145	9.99899e+006	1009.82	1e+007
   146	9.99902e+006	983.156	1e+007
   147	9.999e+006	1004.53	1e+007
   148	9.99902e+006	983.874	1e+007
   149	9.99898e+006	1022.54	1e+007
   150	9.99897e+006	1028.35	1e+007
   151	9.99899e+006	1005.89	1e+007
   152	9.99902e+006	984.279	1e+007
   153	9.99901e+006	990.778	1e+007
   154	9.99902e+006	981.296	1e+007
   155	9.99899e+006	1007.03	1e+007
   156	9.99899e+006	1012.64	1e+007
   157	9.999e+006	1001.33	1e+007
   158	9.999e+006	995.383	1e+007
   159	9.99901e+006	991.044	1e+007
   160	9.99899e+006	1005.99	1e+007
   161	9.99899e+006	1014.06	1e+007
   162	9.999e+006	1001.09	1e+007
   163	9.99899e+006	1008.92	1e+007
   164	9.99903e+006	965.951	1e+007
   165	9.99898e+006	1019.19	1e+007
   166	9.99899e+006	1008.73	1e+007
   167	9.99901e+006	986.888	1e+007
   168	9.99897e+006	1031.49	1e+007
   169	9.99899e+006	1013.51	1e+007
   170	9.99901e+006	994.929	1e+007
   171	9.99901e+006	986.682	1e+007
   172	9.99902e+006	983.319	1e+007
   173	9.99899e+006	1012.8	1e+007
   174	9.99902e+006	983.898	1e+007
   175	9.999e+006	995.541	1e+007
   176	9.99899e+006	1014.81	1e+007
   177	9.999e+006	1001.84	1e+007
   178	9.999e+006	1002.25	1e+007
   179	9.99896e+006	1036.31	1e+007
   180	9.999e+006	998.238	1e+007
   181	9.999e+006	995.062	1e+007
   182	9.99902e+006	980.842	1e+007
   183	9.99904e+006	962.505	1e+007
   184	9.99901e+006	993.177	1e+007
   185	9.999e+006	1000.28	1e+007
   186	9.99899e+006	1014.51	1e+007
   187	9.99898e+006	1019.13	1e+007
   188	9.99902e+006	980.305	1e+007
   189	9.99899e+006	1012.43	1e+007
   190	9.99898e+006	1017.55	1e+007
   191	9.999e+006	996.944	1e+007
   192	9.99902e+006	978.579	1e+007
   193	9.99897e+006	1029.77	1e+007
   194	9.99901e+006	987.956	1e+007
   195	9.999e+006	1000.68	1e+007
   196	9.99901e+006	992.807	1e+007
   197	9.99899e+006	1013.38	1e+007
   198	9.99895e+006	1050.14	1e+007
   199	9.999e+006	1001.02	1e+007
   200	9.99897e+006	1030.39	1e+007
   201	9.99899e+006	1005.46	1e+007
   202	9.99901e+006	988.176	1e+007
   203	9.99898e+006	1020.57	1e+007
   204	9.99902e+006	980.457	1e+007
   205	9.99901e+006	988.753	1e+007
   206	9.999e+006	997.988	1e+007
   207	9.99899e+006	1009.11	1e+007
   208	9.99896e+006	1035.37	1e+007
   209	9.99897e+006	1026.4	1e+007
   210	9.99897e+006	1031.2	1e+007
   211	9.99902e+006	983.783	1e+007
   212	9.99901e+006	992.005	1e+007
   213	9.99903e+006	971.959	1e+007
   214	9.99902e+006	980.929	1e+007
   215	9.99898e+006	1023.33	1e+007
   216	9.999e+006	1000.99	1e+007
   217	9.99897e+006	1029.12	1e+007
   218	9.99901e+006	985.145	1e+007
   219	9.99902e+006	981.197	1e+007
   220	9.99901e+006	992.569	1e+007
   221	9.99901e+006	988.957	1e+007
   222	9.99901e+006	993.466	1e+007
   223	9.999e+006	1000.35	1e+007
   224	9.99898e+006	1022.34	1e+007
   225	9.99901e+006	994.313	1e+007
   226	9.99899e+006	1009.9	1e+007
   227	9.999e+006	997.653	1e+007
   228	9.99903e+006	969.058	1e+007
   229	9.999e+006	996.596	1e+007
   230	9.99904e+006	963.565	1e+007
   231	9.99899e+006	1011.31	1e+007
   232	9.99897e+006	1027.42	1e+007
   233	9.999e+006	1003.62	1e+007
   234	9.99898e+006	1024.97	1e+007
   235	9.999e+006	1002.6	1e+007
   236	9.999e+006	998.82	1e+007
   237	9.99899e+006	1005.67	1e+007
   238	9.99898e+006	1019.66	1e+007
   239	9.99896e+006	1042.24	1e+007
   240	9.99902e+006	976.747	1e+007
   241	9.99901e+006	993.941	1e+007
   242	9.99899e+006	1008.28	1e+007
   243	9.99901e+006	989.298	1e+007
   244	9.99899e+006	1005.67	1e+007
   245	9.99896e+006	1036.16	1e+007
   246	9.99899e+006	1014.24	1e+007
   247	9.99898e+006	1021	1e+007
   248	9.999e+006	1001.46	1e+007
   249	9.999e+006	995.994	1e+007
   250	9.99898e+006	1016	1e+007
   251	9.99902e+006	984.536	1e+007
   252	9.99901e+006	987.969	1e+007
   253	9.99903e+006	967.555	1e+007
   254	9.99902e+006	977.049	1e+007
   255	9.99903e+006	973.093	1e+007
   256	9.99904e+006	962.711	1e+007
   257	9.99897e+006	1025.74	1e+007
   258	9.99901e+006	989.204	1e+007
   259	9.99898e+006	1019.93	1e+007
   260	9.99895e+006	1047.36	1e+007
   261	9.99902e+006	977.858	1e+007
   262	9.99895e+006	1045.28	1e+007
   263	9.999e+006	1001.94	1e+007
   264	9.999e+006	1003.38	1e+007
   265	9.99897e+006	1030.98	1e+007
   266	9.999e+006	998.87	1e+007
   267	9.99899e+006	1009.74	1e+007
   268	9.99901e+006	992.235	1e+007
   269	9.99898e+006	1018.6	1e+007
   270	9.999e+006	995.194	1e+007
   271	9.99898e+006	1016.97	1e+007
   272	9.99899e+006	1006.43	1e+007
   273	9.99903e+006	967.799	1e+007
   274	9.99901e+006	988.539	1e+007
   275	9.999e+006	1002.45	1e+007
   276	9.99899e+006	1009.9	1e+007
   277	9.99899e+006	1012.38	1e+007
   278	9.99903e+006	971.864	1e+007
   279	9.999e+006	997.742	1e+007
   280	9.99903e+006	966.687	1e+007
   281	9.99902e+006	975.676	1e+007
   282	9.99902e+006	981.091	1e+007
   283	9.99901e+006	985.069	1e+007
   284	9.99897e+006	1031.85	1e+007
   285	9.99903e+006	969.556	1e+007
   286	9.99898e+006	1018.56	1e+007
   287	9.999e+006	996.214	1e+007
   288	9.999e+006	998.804	1e+007
   289	9.99898e+006	1020.23	1e+007
   290	9.999e+006	1001.62	1e+007
   291	9.999e+006	998	1e+007
   292	9.99899e+006	1006.68	1e+007
   293	9.999e+006	1000.88	1e+007
   294	9.99897e+006	1031.72	1e+007
   295	9.99897e+006	1028.07	1e+007
   296	9.99903e+006	971.715	1e+007
   297	9.99901e+006	993.172	1e+007
   298	9.99903e+006	968.52	1e+007
   299	9.99897e+006	1029.66	1e+007
   300	9.99901e+006	988.003	1e+007
   301	9.99903e+006	971.417	1e+007
   302	9.99902e+006	984.474	1e+007
   303	9.99896e+006	1035.07	1e+007
   304	9.99898e+006	1017.01	1e+007
   305	9.99901e+006	988.191	1e+007
   306	9.99903e+006	973.538	1e+007
   307	9.99901e+006	992.229	1e+007
   308	9.999e+006	1002.62	1e+007
   309	9.99898e+006	1024.51	1e+007
   310	9.99901e+006	993.948	1e+007
   311	9.99898e+006	1018.15	1e+007
   312	9.99896e+006	1042.35	1e+007
   313	9.99903e+006	970.9	1e+007
   314	9.99899e+006	1007.89	1e+007
   315	9.999e+006	1003.51	1e+007
   316	9.99899e+006	1012.13	1e+007
   317	9.99904e+006	962.938	1e+007
   318	9.99897e+006	1025.64	1e+007
   319	9.99902e+006	977.303	1e+007
   320	9.99903e+006	968.153	1e+007
   321	9.99898e+006	1022.77	1e+007
   322	9.99902e+006	977.715	1e+007
   323	9.99901e+006	987.51	1e+007
   324	9.99903e+006	969.498	1e+007
   325	9.99899e+006	1007.8	1e+007
   326	9.99898e+006	1020.23	1e+007
   327	9.999e+006	1002.65	1e+007
   328	9.99898e+006	1016.1	1e+007
   329	9.999e+006	999.009	1e+007
   330	9.99902e+006	981.439	1e+007
   331	9.99899e+006	1013.47	1e+007
   332	9.99895e+006	1045.88	1e+007
   333	9.999e+006	998.469	1e+007
   334	9.99901e+006	992.207	1e+007
   335	9.999e+006	998.633	1e+007
   336	9.99897e+006	1026.86	1e+007
   337	9.999e+006	997.642	1e+007
   338	9.99903e+006	966.744	1e+007
   339	9.99896e+006	1044	1e+007
   340	9.99899e+006	1011.68	1e+007
   341	9.99902e+006	976.684	1e+007
   342	9.99902e+006	980.597	1e+007
   343	9.99904e+006	956.015	1e+007
   344	9.999e+006	1002.19	1e+007
   345	9.99897e+006	1030.73	1e+007
   346	9.99902e+006	979.388	1e+007
   347	9.99902e+006	979.432	1e+007
   348	9.999e+006	1004.56	1e+007
   349	9.999e+006	999.88	1e+007
   350	9.99899e+006	1005.86	1e+007
   351	9.99897e+006	1030.8	1e+007
   352	9.99898e+006	1024.22	1e+007
   353	9.99899e+006	1015	1e+007
   354	9.999e+006	995.59	1e+007
   355	9.999e+006	1001.39	1e+007
   356	9.99903e+006	970.141	1e+007
   357	9.99902e+006	976.144	1e+007
   358	9.99899e+006	1008.03	1e+007
   359	9.99898e+006	1015.31	1e+007
   360	9.999e+006	1003.37	1e+007
   361	9.99901e+006	990.57	1e+007
   362	9.999e+006	998.306	1e+007
   363	9.99901e+006	985.057	1e+007
   364	9.99901e+006	991.755	1e+007
   365	9.99897e+006	1031.67	1e+007
   366	9.99897e+006	1033.39	1e+007
   367	9.99901e+006	989.478	1e+007
   368	9.99902e+006	982.339	1e+007
   369	9.99903e+006	974.78	1e+007
   370	9.99897e+006	1026.45	1e+007
   371	9.999e+006	997.203	1e+007
   372	9.99901e+006	990.138	1e+007
   373	9.99898e+006	1020.06	1e+007
   374	9.99902e+006	978.995	1e+007
   375	9.999e+006	996.993	1e+007
   376	9.99899e+006	1008.73	1e+007
   377	9.99901e+006	991.167	1e+007
   378	9.99897e+006	1028.91	1e+007
   379	9.99899e+006	1012.63	1e+007
   380	9.99899e+006	1007.38	1e+007
   381	9.99902e+006	983.949	1e+007
   382	9.99897e+006	1026.1	1e+007
   383	9.99901e+006	986.777	1e+007
   384	9.999e+006	1004.69	1e+007
   385	9.99898e+006	1023.08	1e+007
   386	9.99901e+006	993.199	1e+007
   387	9.99903e+006	974.15	1e+007
   388	9.99897e+006	1029.26	1e+007
   389	9.99898e+006	1024.1	1e+007
   390	9.999e+006	997.062	1e+007
   391	9.99899e+006	1011.79	1e+007
   392	9.99902e+006	980.527	1e+007
   393	9.999e+006	999.769	1e+007
   394	9.99897e+006	1032.56	1e+007
   395	9.99902e+006	979.155	1e+007
   396	9.999e+006	998.948	1e+007
   397	9.99897e+006	1032.3	1e+007
   398	9.99898e+006	1015.98	1e+007
   399	9.99895e+006	1048.73	1e+007
   400	9.99899e+006	1012.24	1e+007
   401	9.99901e+006	985.208	1e+007
   402	9.99899e+006	1013.71	1e+007
   403	9.99902e+006	977.561	1e+007
   404	9.99903e+006	973.008	1e+007
   405	9.99901e+006	992.247	1e+007
   406	9.99901e+006	991.241	1e+007
   407	9.99899e+006	1006.69	1e+007
   408	9.99896e+006	1044.66	1e+007
   409	9.99901e+006	986.088	1e+007
   410	9.99896e+006	1043.31	1e+007
   411	9.99903e+006	973.895	1e+007
   412	9.999e+006	997.333	1e+007
   413	9.999e+006	997.195	1e+007
   414	9.99895e+006	1050.41	1e+007
   415	9.999e+006	997.686	1e+007
   416	9.99897e+006	1029.47	1e+007
   417	9.99899e+006	1007.9	1e+007
   418	9.99899e+006	1007.4	1e+007
   419	9.999e+006	998.55	1e+007
   420	9.99896e+006	1044.21	1e+007
   421	9.99899e+006	1010.94	1e+007
   422	9.99901e+006	991.286	1e+007
   423	9.99904e+006	960.127	1e+007
   424	9.99898e+006	1016.87	1e+007
   425	9.999e+006	1003.35	1e+007
   426	9.99901e+006	991.113	1e+007
   427	9.999e+006	995.194	1e+007
   428	9.99904e+006	957.688	1e+007
   429	9.99899e+006	1008.39	1e+007
   430	9.99899e+006	1012.14	1e+007
   431	9.99898e+006	1023.63	1e+007
   432	9.99903e+006	971.024	1e+007
   433	9.99901e+006	990.885	1e+007
   434	9.99901e+006	994.901	1e+007
   435	9.99899e+006	1008.52	1e+007
   436	9.99898e+006	1018.21	1e+007
   437	9.99897e+006	1027.76	1e+007
   438	9.99902e+006	975.293	1e+007
   439	9.999e+006	1003.6	1e+007
   440	9.99899e+006	1012.99	1e+007
   441	9.99897e+006	1034.59	1e+007
   442	9.99899e+006	1009.21	1e+007
   443	9.99901e+006	994.133	1e+007
   444	9.99902e+006	981.307	1e+007
   445	9.99903e+006	971.548	1e+007
   446	9.99901e+006	991.115	1e+007
   447	9.99897e+006	1029.45	1e+007
   448	9.99896e+006	1037.22	1e+007
   449	9.99902e+006	978.117	1e+007
   450	9.99897e+006	1031.7	1e+007
   451	9.99901e+006	991.787	1e+007
   452	9.99896e+006	1037.07	1e+007
   453	9.99896e+006	1042.51	1e+007
   454	9.999e+006	996.974	1e+007
   455	9.99896e+006	1036.73	1e+007
   456	9.99899e+006	1013.11	1e+007
   457	9.99898e+006	1015.43	1e+007
   458	9.999e+006	996.714	1e+007
   459	9.999e+006	1002.52	1e+007
   460	9.99902e+006	980.479	1e+007
   461	9.99904e+006	963.908	1e+007
   462	9.99901e+006	990.863	1e+007
   463	9.99901e+006	993.142	1e+007
   464	9.99896e+006	1040.32	1e+007
   465	9.99901e+006	991.513	1e+007
   466	9.99901e+006	987.916	1e+007
   467	9.99896e+006	1041.52	1e+007
   468	9.99898e+006	1016.54	1e+007
   469	9.99901e+006	991.856	1e+007
   470	9.99901e+006	986.983	1e+007
   471	9.99897e+006	1029.16	1e+007
   472	9.99899e+006	1010.74	1e+007
   473	9.99896e+006	1044.44	1e+007
   474	9.99902e+006	976.743	1e+007
   475	9.99897e+006	1028.6	1e+007
   476	9.99901e+006	990.526	1e+007
   477	9.99903e+006	971.879	1e+007
   478	9.99902e+006	980.459	1e+007
   479	9.999e+006	1004.96	1e+007
   480	9.999e+006	997.08	1e+007
   481	9.99897e+006	1027.6	1e+007
   482	9.999e+006	1004.17	1e+007
   483	9.99897e+006	1032.79	1e+007
   484	9.99899e+006	1011.71	1e+007
   485	9.999e+006	1000.77	1e+007
   486	9.99902e+006	976.243	1e+007
   487	9.99901e+006	987.518	1e+007
   488	9.999e+006	997.62	1e+007
   489	9.99901e+006	990.431	1e+007
   490	9.99898e+006	1019.46	1e+007
   491	9.99902e+006	983.372	1e+007
   492	9.99898e+006	1022.01	1e+007
   493	9.99902e+006	980.659	1e+007
   494	9.99897e+006	1028.35	1e+007
   495	9.99901e+006	994.452	1e+007
   496	9.99897e+006	1027.78	1e+007
   497	9.99902e+006	979.275	1e+007
   498	9.99899e+006	1012.64	1e+007
   499	9.99902e+006	979.448	1e+007
   500	9.99902e+006	984.887	1e+007


Date: Sun Apr 15 09:21:59 2018
Total elapsed time: 3.579 seconds.

tnom = 27
temp = 27
method = trap
totiter = 0
traniter = 0
tranpoints = 0
accept = 0
rejected = 0
matrix size = 7
fillins = 1
solver = Normal

