Circuit: * Z:\home\francisco\Files\College-UFSC\6th semester\Tópicos Especiais I -Microeletronica\Trabalho-6 Otimização de Estágio Fonte Comum Ativa\ParticleSwarm\ex5pt4.asc

WARNING: Less than two connections to node N001.  This node is used by M§PMOS2.



Date: Thu Jun 15 14:38:23 2017
Total elapsed time: 0.101 seconds.

tnom = 27
temp = 27
method = trap
totiter = 1025
traniter = 0
tranpoints = 0
accept = 0
rejected = 0
matrix size = 10
fillins = 0
solver = Normal
Matrix Compiler1: 256 bytes object code size  0.3/0.3/[0.3]
Matrix Compiler2: 618 bytes object code size  0.3/0.4/[0.3]


