Circuit: * Z:\home\francisco\Files\College-UFSC\6th semestre\Tópicos Especiais I -Microeletronica\Trabalho 2 - Pequenos Sinais\Parte 2\Trabalho2.asc


Date: Thu Apr 06 00:38:56 2017
Total elapsed time: 0.162 seconds.

tnom = 27
temp = 27
method = trap
totiter = 1025
traniter = 0
tranpoints = 0
accept = 0
rejected = 0
matrix size = 6
fillins = 0
solver = Normal
Matrix Compiler1: 164 bytes object code size  1.0/0.8/[0.8]
Matrix Compiler2: 414 bytes object code size  1.0/1.1/[0.8]


