Circuit: * Z:\home\francisco\Files\College-UFSC\6th semester\Tópicos Especiais I -Microeletronica\Trabalho-6 Amplificadores\Simulação\inicial.asc

Direct Newton iteration for .op point succeeded.

gain1hz: v(out)=(116.798dB,-39.1557°) at 1


Date: Wed Jun 28 19:27:07 2017
Total elapsed time: 0.084 seconds.

tnom = 27
temp = 27
method = trap
totiter = 24
traniter = 0
tranpoints = 0
accept = 0
rejected = 0
matrix size = 11
fillins = 2
solver = Normal
Matrix Compiler1:      38 opcodes
Matrix Compiler2: 1003 bytes object code size

