Circuit: * D:\googleDriver\ENC\8th Semester\Aquisição de Sinais\Filtros de Primeira Ordem\ltspice\Parte2\passaalta.asc


Date: Sun Apr 15 12:27:52 2018
Total elapsed time: 0.535 seconds.

tnom = 27
temp = 27
method = trap
totiter = 0
traniter = 0
tranpoints = 0
accept = 0
rejected = 0
matrix size = 8
fillins = 4
solver = Normal

