Circuit: * Z:\home\francisco\Files\ENC\8th Semester\Aquisição de Sinais\Relatórios 2018-1\Relatório Amplificador Macromodelo\LTSPICE\parte2.asc

.OP point found by inspection.

Date: Fri Mar 02 11:41:55 2018
Total elapsed time: 0.098 seconds.

tnom = 27
temp = 27
method = modified trap
totiter = 2082
traniter = 2082
tranpoints = 1042
accept = 1042
rejected = 0
matrix size = 6
fillins = 0
solver = Normal
Matrix Compiler1: 164 bytes object code size  0.9/0.8/[0.8]
Matrix Compiler2: 348 bytes object code size  0.8/1.0/[0.8]

