Circuit: * Z:\home\francisco\Files\ENC\8th Semester\Aquisição de Sinais\Relatórios 2018-1\Relatório Amplificador Macromodelo\LTSPICE\parte1.asc

Direct Newton iteration for .op point succeeded.

Date: Fri Mar 02 10:17:36 2018
Total elapsed time: 0.058 seconds.

tnom = 27
temp = 27
method = trap
totiter = 3
traniter = 0
tranpoints = 0
accept = 0
rejected = 0
matrix size = 6
fillins = 0
solver = Normal
Matrix Compiler1: 164 bytes object code size
Matrix Compiler2: 348 bytes object code size
