Circuit: * Z:\home\francisco\Files\ENC\8th Semester\Aquisição de Sinais\Relatórios 2018-1\Relatório Amplificador Macromodelo\LTSPICE\parte3.asc

.OP point found by inspection.

Date: Fri Mar 02 11:50:54 2018
Total elapsed time: 0.099 seconds.

tnom = 27
temp = 27
method = modified trap
totiter = 3158
traniter = 3158
tranpoints = 1273
accept = 1207
rejected = 66
matrix size = 6
fillins = 0
solver = Normal
Matrix Compiler1: 164 bytes object code size  0.9/0.8/[0.8]
Matrix Compiler2: 348 bytes object code size  0.8/1.0/[0.9]

