Circuit: * C:\Users\Matheus\Desktop\Topicos I\Parte 2\parte 2.asc


Date: Wed Mar 29 03:00:15 2017
Total elapsed time: 0.079 seconds.

tnom = 27
temp = 27
method = trap
totiter = 404
traniter = 0
tranpoints = 0
accept = 0
rejected = 0
matrix size = 4
fillins = 0
solver = Normal
Matrix Compiler1: 118 bytes object code size  0.0/0.0/[0.0]
Matrix Compiler2: 216 bytes object code size  0.0/0.1/[0.0]


