Circuit: * C:\Users\Matheus\Desktop\Topicos I\Trabalho 2 - Pequenos Sinais\Trabalho2.asc


Date: Wed Apr 05 14:52:57 2017
Total elapsed time: 0.344 seconds.

tnom = 27
temp = 27
method = trap
totiter = 1025
traniter = 0
tranpoints = 0
accept = 0
rejected = 0
matrix size = 6
fillins = 0
solver = Normal
Matrix Compiler1: 164 bytes object code size  0.1/0.1/[0.0]
Matrix Compiler2: 414 bytes object code size  0.1/0.2/[0.1]


