Circuit: * Z:\home\francisco\Files\College-UFSC\6th semestre\Tópicos Especiais I -Microeletronica\Trabalho 2 - Pequenos Sinais\Parte 1\Trabalho2.asc


Date: Wed Apr 05 23:37:20 2017
Total elapsed time: 0.160 seconds.

tnom = 27
temp = 27
method = trap
totiter = 1025
traniter = 0
tranpoints = 0
accept = 0
rejected = 0
matrix size = 6
fillins = 0
solver = Normal
Matrix Compiler1:      10 opcodes  0.9/[0.8]/1.9
Matrix Compiler2: 414 bytes object code size  0.9/1.1/[0.8]


