Circuit: * C:\Users\Matheus\Desktop\Topicos I\Parte 3\trab1.asc

.OP point found by inspection.
.step vgs=0
.step vgs=0.5
.step vgs=1

Date: Thu Mar 30 12:10:15 2017
Total elapsed time: 0.109 seconds.

tnom = 27
temp = 27
method = trap
totiter = 1209
traniter = 0
tranpoints = 0
accept = 0
rejected = 0
matrix size = 4
fillins = 0
solver = Normal
Matrix Compiler1: off  [0.0]/0.0/0.0
Matrix Compiler2: 216 bytes object code size  0.1/0.0/[0.0]


