Circuit: * D:\googleDriver\ENC\8th Semester\Aquisiчуo de Sinais\Filtros de Primeira Ordem\ltspice\Parte 3\passabaixa-corte1k-comacoplamento.asc

.step run=1
.step run=2
.step run=3
.step run=4
.step run=5
.step run=6
.step run=7
.step run=8
.step run=9
.step run=10
.step run=11
.step run=12
.step run=13
.step run=14
.step run=15
.step run=16
.step run=17
.step run=18
.step run=19
.step run=20
.step run=21
.step run=22
.step run=23
.step run=24
.step run=25
.step run=26
.step run=27
.step run=28
.step run=29
.step run=30
.step run=31
.step run=32
.step run=33
.step run=34
.step run=35
.step run=36
.step run=37
.step run=38
.step run=39
.step run=40
.step run=41
.step run=42
.step run=43
.step run=44
.step run=45
.step run=46
.step run=47
.step run=48
.step run=49
.step run=50
.step run=51
.step run=52
.step run=53
.step run=54
.step run=55
.step run=56
.step run=57
.step run=58
.step run=59
.step run=60
.step run=61
.step run=62
.step run=63
.step run=64
.step run=65
.step run=66
.step run=67
.step run=68
.step run=69
.step run=70
.step run=71
.step run=72
.step run=73
.step run=74
.step run=75
.step run=76
.step run=77
.step run=78
.step run=79
.step run=80
.step run=81
.step run=82
.step run=83
.step run=84
.step run=85
.step run=86
.step run=87
.step run=88
.step run=89
.step run=90
.step run=91
.step run=92
.step run=93
.step run=94
.step run=95
.step run=96
.step run=97
.step run=98
.step run=99
.step run=100
.step run=101
.step run=102
.step run=103
.step run=104
.step run=105
.step run=106
.step run=107
.step run=108
.step run=109
.step run=110
.step run=111
.step run=112
.step run=113
.step run=114
.step run=115
.step run=116
.step run=117
.step run=118
.step run=119
.step run=120
.step run=121
.step run=122
.step run=123
.step run=124
.step run=125
.step run=126
.step run=127
.step run=128
.step run=129
.step run=130
.step run=131
.step run=132
.step run=133
.step run=134
.step run=135
.step run=136
.step run=137
.step run=138
.step run=139
.step run=140
.step run=141
.step run=142
.step run=143
.step run=144
.step run=145
.step run=146
.step run=147
.step run=148
.step run=149
.step run=150
.step run=151
.step run=152
.step run=153
.step run=154
.step run=155
.step run=156
.step run=157
.step run=158
.step run=159
.step run=160
.step run=161
.step run=162
.step run=163
.step run=164
.step run=165
.step run=166
.step run=167
.step run=168
.step run=169
.step run=170
.step run=171
.step run=172
.step run=173
.step run=174
.step run=175
.step run=176
.step run=177
.step run=178
.step run=179
.step run=180
.step run=181
.step run=182
.step run=183
.step run=184
.step run=185
.step run=186
.step run=187
.step run=188
.step run=189
.step run=190
.step run=191
.step run=192
.step run=193
.step run=194
.step run=195
.step run=196
.step run=197
.step run=198
.step run=199
.step run=200
.step run=201
.step run=202
.step run=203
.step run=204
.step run=205
.step run=206
.step run=207
.step run=208
.step run=209
.step run=210
.step run=211
.step run=212
.step run=213
.step run=214
.step run=215
.step run=216
.step run=217
.step run=218
.step run=219
.step run=220
.step run=221
.step run=222
.step run=223
.step run=224
.step run=225
.step run=226
.step run=227
.step run=228
.step run=229
.step run=230
.step run=231
.step run=232
.step run=233
.step run=234
.step run=235
.step run=236
.step run=237
.step run=238
.step run=239
.step run=240
.step run=241
.step run=242
.step run=243
.step run=244
.step run=245
.step run=246
.step run=247
.step run=248
.step run=249
.step run=250
.step run=251
.step run=252
.step run=253
.step run=254
.step run=255
.step run=256
.step run=257
.step run=258
.step run=259
.step run=260
.step run=261
.step run=262
.step run=263
.step run=264
.step run=265
.step run=266
.step run=267
.step run=268
.step run=269
.step run=270
.step run=271
.step run=272
.step run=273
.step run=274
.step run=275
.step run=276
.step run=277
.step run=278
.step run=279
.step run=280
.step run=281
.step run=282
.step run=283
.step run=284
.step run=285
.step run=286
.step run=287
.step run=288
.step run=289
.step run=290
.step run=291
.step run=292
.step run=293
.step run=294
.step run=295
.step run=296
.step run=297
.step run=298
.step run=299
.step run=300
.step run=301
.step run=302
.step run=303
.step run=304
.step run=305
.step run=306
.step run=307
.step run=308
.step run=309
.step run=310
.step run=311
.step run=312
.step run=313
.step run=314
.step run=315
.step run=316
.step run=317
.step run=318
.step run=319
.step run=320
.step run=321
.step run=322
.step run=323
.step run=324
.step run=325
.step run=326
.step run=327
.step run=328
.step run=329
.step run=330
.step run=331
.step run=332
.step run=333
.step run=334
.step run=335
.step run=336
.step run=337
.step run=338
.step run=339
.step run=340
.step run=341
.step run=342
.step run=343
.step run=344
.step run=345
.step run=346
.step run=347
.step run=348
.step run=349
.step run=350
.step run=351
.step run=352
.step run=353
.step run=354
.step run=355
.step run=356
.step run=357
.step run=358
.step run=359
.step run=360
.step run=361
.step run=362
.step run=363
.step run=364
.step run=365
.step run=366
.step run=367
.step run=368
.step run=369
.step run=370
.step run=371
.step run=372
.step run=373
.step run=374
.step run=375
.step run=376
.step run=377
.step run=378
.step run=379
.step run=380
.step run=381
.step run=382
.step run=383
.step run=384
.step run=385
.step run=386
.step run=387
.step run=388
.step run=389
.step run=390
.step run=391
.step run=392
.step run=393
.step run=394
.step run=395
.step run=396
.step run=397
.step run=398
.step run=399
.step run=400
.step run=401
.step run=402
.step run=403
.step run=404
.step run=405
.step run=406
.step run=407
.step run=408
.step run=409
.step run=410
.step run=411
.step run=412
.step run=413
.step run=414
.step run=415
.step run=416
.step run=417
.step run=418
.step run=419
.step run=420
.step run=421
.step run=422
.step run=423
.step run=424
.step run=425
.step run=426
.step run=427
.step run=428
.step run=429
.step run=430
.step run=431
.step run=432
.step run=433
.step run=434
.step run=435
.step run=436
.step run=437
.step run=438
.step run=439
.step run=440
.step run=441
.step run=442
.step run=443
.step run=444
.step run=445
.step run=446
.step run=447
.step run=448
.step run=449
.step run=450
.step run=451
.step run=452
.step run=453
.step run=454
.step run=455
.step run=456
.step run=457
.step run=458
.step run=459
.step run=460
.step run=461
.step run=462
.step run=463
.step run=464
.step run=465
.step run=466
.step run=467
.step run=468
.step run=469
.step run=470
.step run=471
.step run=472
.step run=473
.step run=474
.step run=475
.step run=476
.step run=477
.step run=478
.step run=479
.step run=480
.step run=481
.step run=482
.step run=483
.step run=484
.step run=485
.step run=486
.step run=487
.step run=488
.step run=489
.step run=490
.step run=491
.step run=492
.step run=493
.step run=494
.step run=495
.step run=496
.step run=497
.step run=498
.step run=499
.step run=500


Measurement: gain
  step	MAX(mag(v(out)))	FROM	TO
     1	(13.5285dB,0А)	1	1e+007
     2	(13.5286dB,0А)	1	1e+007
     3	(13.3857dB,0А)	1	1e+007
     4	(13.6897dB,0А)	1	1e+007
     5	(13.5586dB,0А)	1	1e+007
     6	(13.7228dB,0А)	1	1e+007
     7	(13.6775dB,0А)	1	1e+007
     8	(13.7279dB,0А)	1	1e+007
     9	(13.5975dB,0А)	1	1e+007
    10	(13.5138dB,0А)	1	1e+007
    11	(13.4836dB,0А)	1	1e+007
    12	(13.7373dB,0А)	1	1e+007
    13	(13.439dB,0А)	1	1e+007
    14	(13.3941dB,0А)	1	1e+007
    15	(13.3932dB,0А)	1	1e+007
    16	(13.5722dB,0А)	1	1e+007
    17	(13.6793dB,0А)	1	1e+007
    18	(13.3544dB,0А)	1	1e+007
    19	(13.6086dB,0А)	1	1e+007
    20	(13.4236dB,0А)	1	1e+007
    21	(13.7208dB,0А)	1	1e+007
    22	(13.7444dB,0А)	1	1e+007
    23	(13.645dB,0А)	1	1e+007
    24	(13.4193dB,0А)	1	1e+007
    25	(13.6731dB,0А)	1	1e+007
    26	(13.564dB,0А)	1	1e+007
    27	(13.7225dB,0А)	1	1e+007
    28	(13.455dB,0А)	1	1e+007
    29	(13.6239dB,0А)	1	1e+007
    30	(13.5745dB,0А)	1	1e+007
    31	(13.3534dB,0А)	1	1e+007
    32	(13.6883dB,0А)	1	1e+007
    33	(13.7346dB,0А)	1	1e+007
    34	(13.6929dB,0А)	1	1e+007
    35	(13.3788dB,0А)	1	1e+007
    36	(13.5941dB,0А)	1	1e+007
    37	(13.4978dB,0А)	1	1e+007
    38	(13.4326dB,0А)	1	1e+007
    39	(13.6777dB,0А)	1	1e+007
    40	(13.7002dB,0А)	1	1e+007
    41	(13.6047dB,0А)	1	1e+007
    42	(13.4785dB,0А)	1	1e+007
    43	(13.5793dB,0А)	1	1e+007
    44	(13.4267dB,0А)	1	1e+007
    45	(13.4905dB,0А)	1	1e+007
    46	(13.3563dB,0А)	1	1e+007
    47	(13.6219dB,0А)	1	1e+007
    48	(13.4146dB,0А)	1	1e+007
    49	(13.6396dB,0А)	1	1e+007
    50	(13.4517dB,0А)	1	1e+007
    51	(13.4356dB,0А)	1	1e+007
    52	(13.5456dB,0А)	1	1e+007
    53	(13.3421dB,0А)	1	1e+007
    54	(13.5428dB,0А)	1	1e+007
    55	(13.5095dB,0А)	1	1e+007
    56	(13.4186dB,0А)	1	1e+007
    57	(13.453dB,0А)	1	1e+007
    58	(13.657dB,0А)	1	1e+007
    59	(13.4456dB,0А)	1	1e+007
    60	(13.5155dB,0А)	1	1e+007
    61	(13.7138dB,0А)	1	1e+007
    62	(13.4137dB,0А)	1	1e+007
    63	(13.7112dB,0А)	1	1e+007
    64	(13.711dB,0А)	1	1e+007
    65	(13.485dB,0А)	1	1e+007
    66	(13.5825dB,0А)	1	1e+007
    67	(13.6486dB,0А)	1	1e+007
    68	(13.5179dB,0А)	1	1e+007
    69	(13.7009dB,0А)	1	1e+007
    70	(13.4798dB,0А)	1	1e+007
    71	(13.6274dB,0А)	1	1e+007
    72	(13.5766dB,0А)	1	1e+007
    73	(13.5071dB,0А)	1	1e+007
    74	(13.3878dB,0А)	1	1e+007
    75	(13.6574dB,0А)	1	1e+007
    76	(13.6052dB,0А)	1	1e+007
    77	(13.5168dB,0А)	1	1e+007
    78	(13.5122dB,0А)	1	1e+007
    79	(13.4284dB,0А)	1	1e+007
    80	(13.536dB,0А)	1	1e+007
    81	(13.4503dB,0А)	1	1e+007
    82	(13.6784dB,0А)	1	1e+007
    83	(13.4757dB,0А)	1	1e+007
    84	(13.5662dB,0А)	1	1e+007
    85	(13.5136dB,0А)	1	1e+007
    86	(13.4421dB,0А)	1	1e+007
    87	(13.4012dB,0А)	1	1e+007
    88	(13.4746dB,0А)	1	1e+007
    89	(13.3697dB,0А)	1	1e+007
    90	(13.6467dB,0А)	1	1e+007
    91	(13.3897dB,0А)	1	1e+007
    92	(13.7096dB,0А)	1	1e+007
    93	(13.7232dB,0А)	1	1e+007
    94	(13.5457dB,0А)	1	1e+007
    95	(13.6395dB,0А)	1	1e+007
    96	(13.7065dB,0А)	1	1e+007
    97	(13.6322dB,0А)	1	1e+007
    98	(13.4113dB,0А)	1	1e+007
    99	(13.3785dB,0А)	1	1e+007
   100	(13.4296dB,0А)	1	1e+007
   101	(13.3804dB,0А)	1	1e+007
   102	(13.5048dB,0А)	1	1e+007
   103	(13.5538dB,0А)	1	1e+007
   104	(13.3791dB,0А)	1	1e+007
   105	(13.7212dB,0А)	1	1e+007
   106	(13.5485dB,0А)	1	1e+007
   107	(13.6005dB,0А)	1	1e+007
   108	(13.5147dB,0А)	1	1e+007
   109	(13.4711dB,0А)	1	1e+007
   110	(13.4112dB,0А)	1	1e+007
   111	(13.5647dB,0А)	1	1e+007
   112	(13.5432dB,0А)	1	1e+007
   113	(13.5185dB,0А)	1	1e+007
   114	(13.7024dB,0А)	1	1e+007
   115	(13.5285dB,0А)	1	1e+007
   116	(13.7366dB,0А)	1	1e+007
   117	(13.399dB,0А)	1	1e+007
   118	(13.4616dB,0А)	1	1e+007
   119	(13.6991dB,0А)	1	1e+007
   120	(13.6875dB,0А)	1	1e+007
   121	(13.5026dB,0А)	1	1e+007
   122	(13.604dB,0А)	1	1e+007
   123	(13.4377dB,0А)	1	1e+007
   124	(13.4303dB,0А)	1	1e+007
   125	(13.4981dB,0А)	1	1e+007
   126	(13.6953dB,0А)	1	1e+007
   127	(13.5766dB,0А)	1	1e+007
   128	(13.5394dB,0А)	1	1e+007
   129	(13.7086dB,0А)	1	1e+007
   130	(13.6325dB,0А)	1	1e+007
   131	(13.4432dB,0А)	1	1e+007
   132	(13.6091dB,0А)	1	1e+007
   133	(13.4076dB,0А)	1	1e+007
   134	(13.5232dB,0А)	1	1e+007
   135	(13.7236dB,0А)	1	1e+007
   136	(13.7315dB,0А)	1	1e+007
   137	(13.6836dB,0А)	1	1e+007
   138	(13.3818dB,0А)	1	1e+007
   139	(13.738dB,0А)	1	1e+007
   140	(13.6083dB,0А)	1	1e+007
   141	(13.4287dB,0А)	1	1e+007
   142	(13.4866dB,0А)	1	1e+007
   143	(13.7602dB,0А)	1	1e+007
   144	(13.6124dB,0А)	1	1e+007
   145	(13.6553dB,0А)	1	1e+007
   146	(13.5863dB,0А)	1	1e+007
   147	(13.3627dB,0А)	1	1e+007
   148	(13.5375dB,0А)	1	1e+007
   149	(13.6126dB,0А)	1	1e+007
   150	(13.7264dB,0А)	1	1e+007
   151	(13.7388dB,0А)	1	1e+007
   152	(13.4763dB,0А)	1	1e+007
   153	(13.4881dB,0А)	1	1e+007
   154	(13.4627dB,0А)	1	1e+007
   155	(13.3915dB,0А)	1	1e+007
   156	(13.7328dB,0А)	1	1e+007
   157	(13.7552dB,0А)	1	1e+007
   158	(13.3495dB,0А)	1	1e+007
   159	(13.3812dB,0А)	1	1e+007
   160	(13.6861dB,0А)	1	1e+007
   161	(13.5329dB,0А)	1	1e+007
   162	(13.3841dB,0А)	1	1e+007
   163	(13.44dB,0А)	1	1e+007
   164	(13.4485dB,0А)	1	1e+007
   165	(13.5815dB,0А)	1	1e+007
   166	(13.7251dB,0А)	1	1e+007
   167	(13.361dB,0А)	1	1e+007
   168	(13.6886dB,0А)	1	1e+007
   169	(13.4907dB,0А)	1	1e+007
   170	(13.687dB,0А)	1	1e+007
   171	(13.4882dB,0А)	1	1e+007
   172	(13.3808dB,0А)	1	1e+007
   173	(13.4913dB,0А)	1	1e+007
   174	(13.3734dB,0А)	1	1e+007
   175	(13.5481dB,0А)	1	1e+007
   176	(13.6285dB,0А)	1	1e+007
   177	(13.6993dB,0А)	1	1e+007
   178	(13.527dB,0А)	1	1e+007
   179	(13.6916dB,0А)	1	1e+007
   180	(13.5082dB,0А)	1	1e+007
   181	(13.4807dB,0А)	1	1e+007
   182	(13.5309dB,0А)	1	1e+007
   183	(13.4155dB,0А)	1	1e+007
   184	(13.6905dB,0А)	1	1e+007
   185	(13.5787dB,0А)	1	1e+007
   186	(13.7549dB,0А)	1	1e+007
   187	(13.5801dB,0А)	1	1e+007
   188	(13.461dB,0А)	1	1e+007
   189	(13.5876dB,0А)	1	1e+007
   190	(13.5975dB,0А)	1	1e+007
   191	(13.4524dB,0А)	1	1e+007
   192	(13.4697dB,0А)	1	1e+007
   193	(13.6414dB,0А)	1	1e+007
   194	(13.6195dB,0А)	1	1e+007
   195	(13.3883dB,0А)	1	1e+007
   196	(13.4936dB,0А)	1	1e+007
   197	(13.7423dB,0А)	1	1e+007
   198	(13.7512dB,0А)	1	1e+007
   199	(13.4796dB,0А)	1	1e+007
   200	(13.7317dB,0А)	1	1e+007
   201	(13.6817dB,0А)	1	1e+007
   202	(13.4943dB,0А)	1	1e+007
   203	(13.5414dB,0А)	1	1e+007
   204	(13.5739dB,0А)	1	1e+007
   205	(13.5453dB,0А)	1	1e+007
   206	(13.6154dB,0А)	1	1e+007
   207	(13.4282dB,0А)	1	1e+007
   208	(13.6202dB,0А)	1	1e+007
   209	(13.6259dB,0А)	1	1e+007
   210	(13.5722dB,0А)	1	1e+007
   211	(13.4545dB,0А)	1	1e+007
   212	(13.4051dB,0А)	1	1e+007
   213	(13.3646dB,0А)	1	1e+007
   214	(13.4113dB,0А)	1	1e+007
   215	(13.655dB,0А)	1	1e+007
   216	(13.6154dB,0А)	1	1e+007
   217	(13.5569dB,0А)	1	1e+007
   218	(13.6026dB,0А)	1	1e+007
   219	(13.4266dB,0А)	1	1e+007
   220	(13.5282dB,0А)	1	1e+007
   221	(13.5766dB,0А)	1	1e+007
   222	(13.524dB,0А)	1	1e+007
   223	(13.6366dB,0А)	1	1e+007
   224	(13.625dB,0А)	1	1e+007
   225	(13.6085dB,0А)	1	1e+007
   226	(13.4523dB,0А)	1	1e+007
   227	(13.6952dB,0А)	1	1e+007
   228	(13.4435dB,0А)	1	1e+007
   229	(13.38dB,0А)	1	1e+007
   230	(13.4182dB,0А)	1	1e+007
   231	(13.6873dB,0А)	1	1e+007
   232	(13.6504dB,0А)	1	1e+007
   233	(13.6945dB,0А)	1	1e+007
   234	(13.724dB,0А)	1	1e+007
   235	(13.7248dB,0А)	1	1e+007
   236	(13.5638dB,0А)	1	1e+007
   237	(13.4464dB,0А)	1	1e+007
   238	(13.4811dB,0А)	1	1e+007
   239	(13.7362dB,0А)	1	1e+007
   240	(13.4212dB,0А)	1	1e+007
   241	(13.4445dB,0А)	1	1e+007
   242	(13.6784dB,0А)	1	1e+007
   243	(13.6672dB,0А)	1	1e+007
   244	(13.7184dB,0А)	1	1e+007
   245	(13.6069dB,0А)	1	1e+007
   246	(13.591dB,0А)	1	1e+007
   247	(13.5248dB,0А)	1	1e+007
   248	(13.4806dB,0А)	1	1e+007
   249	(13.5385dB,0А)	1	1e+007
   250	(13.6578dB,0А)	1	1e+007
   251	(13.5778dB,0А)	1	1e+007
   252	(13.4671dB,0А)	1	1e+007
   253	(13.4254dB,0А)	1	1e+007
   254	(13.5011dB,0А)	1	1e+007
   255	(13.4492dB,0А)	1	1e+007
   256	(13.3977dB,0А)	1	1e+007
   257	(13.7238dB,0А)	1	1e+007
   258	(13.5997dB,0А)	1	1e+007
   259	(13.4747dB,0А)	1	1e+007
   260	(13.7238dB,0А)	1	1e+007
   261	(13.4406dB,0А)	1	1e+007
   262	(13.7439dB,0А)	1	1e+007
   263	(13.347dB,0А)	1	1e+007
   264	(13.3738dB,0А)	1	1e+007
   265	(13.7634dB,0А)	1	1e+007
   266	(13.485dB,0А)	1	1e+007
   267	(13.4218dB,0А)	1	1e+007
   268	(13.5299dB,0А)	1	1e+007
   269	(13.6801dB,0А)	1	1e+007
   270	(13.6273dB,0А)	1	1e+007
   271	(13.7138dB,0А)	1	1e+007
   272	(13.7082dB,0А)	1	1e+007
   273	(13.3542dB,0А)	1	1e+007
   274	(13.5019dB,0А)	1	1e+007
   275	(13.6454dB,0А)	1	1e+007
   276	(13.5266dB,0А)	1	1e+007
   277	(13.5322dB,0А)	1	1e+007
   278	(13.4928dB,0А)	1	1e+007
   279	(13.5756dB,0А)	1	1e+007
   280	(13.3684dB,0А)	1	1e+007
   281	(13.391dB,0А)	1	1e+007
   282	(13.5636dB,0А)	1	1e+007
   283	(13.3889dB,0А)	1	1e+007
   284	(13.662dB,0А)	1	1e+007
   285	(13.3803dB,0А)	1	1e+007
   286	(13.5009dB,0А)	1	1e+007
   287	(13.5395dB,0А)	1	1e+007
   288	(13.3532dB,0А)	1	1e+007
   289	(13.7556dB,0А)	1	1e+007
   290	(13.6334dB,0А)	1	1e+007
   291	(13.5976dB,0А)	1	1e+007
   292	(13.4854dB,0А)	1	1e+007
   293	(13.547dB,0А)	1	1e+007
   294	(13.7681dB,0А)	1	1e+007
   295	(13.7016dB,0А)	1	1e+007
   296	(13.4001dB,0А)	1	1e+007
   297	(13.5492dB,0А)	1	1e+007
   298	(13.3767dB,0А)	1	1e+007
   299	(13.7063dB,0А)	1	1e+007
   300	(13.5899dB,0А)	1	1e+007
   301	(13.4657dB,0А)	1	1e+007
   302	(13.3851dB,0А)	1	1e+007
   303	(13.681dB,0А)	1	1e+007
   304	(13.7151dB,0А)	1	1e+007
   305	(13.476dB,0А)	1	1e+007
   306	(13.4997dB,0А)	1	1e+007
   307	(13.6046dB,0А)	1	1e+007
   308	(13.693dB,0А)	1	1e+007
   309	(13.6859dB,0А)	1	1e+007
   310	(13.3685dB,0А)	1	1e+007
   311	(13.6456dB,0А)	1	1e+007
   312	(13.7349dB,0А)	1	1e+007
   313	(13.4154dB,0А)	1	1e+007
   314	(13.5789dB,0А)	1	1e+007
   315	(13.5521dB,0А)	1	1e+007
   316	(13.5369dB,0А)	1	1e+007
   317	(13.3999dB,0А)	1	1e+007
   318	(13.5486dB,0А)	1	1e+007
   319	(13.4613dB,0А)	1	1e+007
   320	(13.4516dB,0А)	1	1e+007
   321	(13.7455dB,0А)	1	1e+007
   322	(13.4876dB,0А)	1	1e+007
   323	(13.5324dB,0А)	1	1e+007
   324	(13.4471dB,0А)	1	1e+007
   325	(13.5729dB,0А)	1	1e+007
   326	(13.7623dB,0А)	1	1e+007
   327	(13.6867dB,0А)	1	1e+007
   328	(13.4892dB,0А)	1	1e+007
   329	(13.4658dB,0А)	1	1e+007
   330	(13.3567dB,0А)	1	1e+007
   331	(13.553dB,0А)	1	1e+007
   332	(13.7255dB,0А)	1	1e+007
   333	(13.3819dB,0А)	1	1e+007
   334	(13.4351dB,0А)	1	1e+007
   335	(13.6635dB,0А)	1	1e+007
   336	(13.6558dB,0А)	1	1e+007
   337	(13.4017dB,0А)	1	1e+007
   338	(13.423dB,0А)	1	1e+007
   339	(13.693dB,0А)	1	1e+007
   340	(13.5826dB,0А)	1	1e+007
   341	(13.5141dB,0А)	1	1e+007
   342	(13.5524dB,0А)	1	1e+007
   343	(13.3712dB,0А)	1	1e+007
   344	(13.7135dB,0А)	1	1e+007
   345	(13.6782dB,0А)	1	1e+007
   346	(13.4815dB,0А)	1	1e+007
   347	(13.428dB,0А)	1	1e+007
   348	(13.7145dB,0А)	1	1e+007
   349	(13.484dB,0А)	1	1e+007
   350	(13.754dB,0А)	1	1e+007
   351	(13.7698dB,0А)	1	1e+007
   352	(13.6881dB,0А)	1	1e+007
   353	(13.6572dB,0А)	1	1e+007
   354	(13.6949dB,0А)	1	1e+007
   355	(13.6731dB,0А)	1	1e+007
   356	(13.4228dB,0А)	1	1e+007
   357	(13.3512dB,0А)	1	1e+007
   358	(13.6657dB,0А)	1	1e+007
   359	(13.6211dB,0А)	1	1e+007
   360	(13.6092dB,0А)	1	1e+007
   361	(13.3954dB,0А)	1	1e+007
   362	(13.7152dB,0А)	1	1e+007
   363	(13.592dB,0А)	1	1e+007
   364	(13.5321dB,0А)	1	1e+007
   365	(13.7492dB,0А)	1	1e+007
   366	(13.6524dB,0А)	1	1e+007
   367	(13.5271dB,0А)	1	1e+007
   368	(13.4422dB,0А)	1	1e+007
   369	(13.4717dB,0А)	1	1e+007
   370	(13.7712dB,0А)	1	1e+007
   371	(13.623dB,0А)	1	1e+007
   372	(13.4554dB,0А)	1	1e+007
   373	(13.7542dB,0А)	1	1e+007
   374	(13.5633dB,0А)	1	1e+007
   375	(13.416dB,0А)	1	1e+007
   376	(13.6491dB,0А)	1	1e+007
   377	(13.4558dB,0А)	1	1e+007
   378	(13.5539dB,0А)	1	1e+007
   379	(13.6149dB,0А)	1	1e+007
   380	(13.5038dB,0А)	1	1e+007
   381	(13.3808dB,0А)	1	1e+007
   382	(13.751dB,0А)	1	1e+007
   383	(13.5867dB,0А)	1	1e+007
   384	(13.5104dB,0А)	1	1e+007
   385	(13.7545dB,0А)	1	1e+007
   386	(13.3655dB,0А)	1	1e+007
   387	(13.5209dB,0А)	1	1e+007
   388	(13.5923dB,0А)	1	1e+007
   389	(13.7231dB,0А)	1	1e+007
   390	(13.4287dB,0А)	1	1e+007
   391	(13.6822dB,0А)	1	1e+007
   392	(13.4091dB,0А)	1	1e+007
   393	(13.4517dB,0А)	1	1e+007
   394	(13.6825dB,0А)	1	1e+007
   395	(13.543dB,0А)	1	1e+007
   396	(13.7479dB,0А)	1	1e+007
   397	(13.7002dB,0А)	1	1e+007
   398	(13.5425dB,0А)	1	1e+007
   399	(13.7291dB,0А)	1	1e+007
   400	(13.5458dB,0А)	1	1e+007
   401	(13.3794dB,0А)	1	1e+007
   402	(13.5649dB,0А)	1	1e+007
   403	(13.5411dB,0А)	1	1e+007
   404	(13.4385dB,0А)	1	1e+007
   405	(13.6319dB,0А)	1	1e+007
   406	(13.3664dB,0А)	1	1e+007
   407	(13.4362dB,0А)	1	1e+007
   408	(13.7615dB,0А)	1	1e+007
   409	(13.4142dB,0А)	1	1e+007
   410	(13.6597dB,0А)	1	1e+007
   411	(13.4463dB,0А)	1	1e+007
   412	(13.4288dB,0А)	1	1e+007
   413	(13.6698dB,0А)	1	1e+007
   414	(13.738dB,0А)	1	1e+007
   415	(13.4662dB,0А)	1	1e+007
   416	(13.6431dB,0А)	1	1e+007
   417	(13.725dB,0А)	1	1e+007
   418	(13.6086dB,0А)	1	1e+007
   419	(13.394dB,0А)	1	1e+007
   420	(13.6732dB,0А)	1	1e+007
   421	(13.526dB,0А)	1	1e+007
   422	(13.4829dB,0А)	1	1e+007
   423	(13.3919dB,0А)	1	1e+007
   424	(13.5179dB,0А)	1	1e+007
   425	(13.7356dB,0А)	1	1e+007
   426	(13.6084dB,0А)	1	1e+007
   427	(13.5847dB,0А)	1	1e+007
   428	(13.3673dB,0А)	1	1e+007
   429	(13.6623dB,0А)	1	1e+007
   430	(13.5091dB,0А)	1	1e+007
   431	(13.6673dB,0А)	1	1e+007
   432	(13.3758dB,0А)	1	1e+007
   433	(13.6751dB,0А)	1	1e+007
   434	(13.3876dB,0А)	1	1e+007
   435	(13.5354dB,0А)	1	1e+007
   436	(13.625dB,0А)	1	1e+007
   437	(13.6592dB,0А)	1	1e+007
   438	(13.434dB,0А)	1	1e+007
   439	(13.65dB,0А)	1	1e+007
   440	(13.4477dB,0А)	1	1e+007
   441	(13.7457dB,0А)	1	1e+007
   442	(13.4045dB,0А)	1	1e+007
   443	(13.5127dB,0А)	1	1e+007
   444	(13.5018dB,0А)	1	1e+007
   445	(13.4181dB,0А)	1	1e+007
   446	(13.4478dB,0А)	1	1e+007
   447	(13.7478dB,0А)	1	1e+007
   448	(13.7403dB,0А)	1	1e+007
   449	(13.5627dB,0А)	1	1e+007
   450	(13.592dB,0А)	1	1e+007
   451	(13.6364dB,0А)	1	1e+007
   452	(13.7287dB,0А)	1	1e+007
   453	(13.7389dB,0А)	1	1e+007
   454	(13.4312dB,0А)	1	1e+007
   455	(13.6573dB,0А)	1	1e+007
   456	(13.5331dB,0А)	1	1e+007
   457	(13.7249dB,0А)	1	1e+007
   458	(13.641dB,0А)	1	1e+007
   459	(13.4643dB,0А)	1	1e+007
   460	(13.4149dB,0А)	1	1e+007
   461	(13.3582dB,0А)	1	1e+007
   462	(13.518dB,0А)	1	1e+007
   463	(13.3598dB,0А)	1	1e+007
   464	(13.6636dB,0А)	1	1e+007
   465	(13.4377dB,0А)	1	1e+007
   466	(13.6109dB,0А)	1	1e+007
   467	(13.7365dB,0А)	1	1e+007
   468	(13.6071dB,0А)	1	1e+007
   469	(13.6744dB,0А)	1	1e+007
   470	(13.3652dB,0А)	1	1e+007
   471	(13.6456dB,0А)	1	1e+007
   472	(13.6512dB,0А)	1	1e+007
   473	(13.709dB,0А)	1	1e+007
   474	(13.4885dB,0А)	1	1e+007
   475	(13.5481dB,0А)	1	1e+007
   476	(13.6505dB,0А)	1	1e+007
   477	(13.4029dB,0А)	1	1e+007
   478	(13.5235dB,0А)	1	1e+007
   479	(13.7068dB,0А)	1	1e+007
   480	(13.5949dB,0А)	1	1e+007
   481	(13.5979dB,0А)	1	1e+007
   482	(13.6686dB,0А)	1	1e+007
   483	(13.6725dB,0А)	1	1e+007
   484	(13.7516dB,0А)	1	1e+007
   485	(13.3684dB,0А)	1	1e+007
   486	(13.3685dB,0А)	1	1e+007
   487	(13.6038dB,0А)	1	1e+007
   488	(13.4831dB,0А)	1	1e+007
   489	(13.6668dB,0А)	1	1e+007
   490	(13.7439dB,0А)	1	1e+007
   491	(13.3677dB,0А)	1	1e+007
   492	(13.5905dB,0А)	1	1e+007
   493	(13.4424dB,0А)	1	1e+007
   494	(13.5988dB,0А)	1	1e+007
   495	(13.4131dB,0А)	1	1e+007
   496	(13.678dB,0А)	1	1e+007
   497	(13.3555dB,0А)	1	1e+007
   498	(13.5905dB,0А)	1	1e+007
   499	(13.4068dB,0А)	1	1e+007
   500	(13.3699dB,0А)	1	1e+007

Measurement: meas_3db
  step	meas_3db	FROM	TO
     1	9.99906e+006	938.705	1e+007
     2	9.9991e+006	903.738	1e+007
     3	9.99909e+006	908.642	1e+007
     4	9.99908e+006	921.364	1e+007
     5	9.99909e+006	910.985	1e+007
     6	9.99904e+006	956.664	1e+007
     7	9.99905e+006	945.243	1e+007
     8	9.99906e+006	939.452	1e+007
     9	9.99906e+006	944.396	1e+007
    10	9.99909e+006	912.024	1e+007
    11	9.99907e+006	926.616	1e+007
    12	9.99906e+006	943.098	1e+007
    13	9.9991e+006	896.034	1e+007
    14	9.99909e+006	911.634	1e+007
    15	9.99912e+006	884.332	1e+007
    16	9.99906e+006	936.774	1e+007
    17	9.99908e+006	915.699	1e+007
    18	9.99912e+006	884.568	1e+007
    19	9.99908e+006	920.193	1e+007
    20	9.99908e+006	915.956	1e+007
    21	9.99906e+006	940.328	1e+007
    22	9.99904e+006	955.828	1e+007
    23	9.99906e+006	937.392	1e+007
    24	9.9991e+006	897.674	1e+007
    25	9.99907e+006	930.884	1e+007
    26	9.99908e+006	920.709	1e+007
    27	9.99907e+006	925.047	1e+007
    28	9.99909e+006	914.152	1e+007
    29	9.99908e+006	923.598	1e+007
    30	9.99907e+006	932.236	1e+007
    31	9.9991e+006	898.552	1e+007
    32	9.99906e+006	938.497	1e+007
    33	9.99906e+006	936.695	1e+007
    34	9.99907e+006	931.567	1e+007
    35	9.99908e+006	917.024	1e+007
    36	9.99907e+006	932.334	1e+007
    37	9.99911e+006	894.644	1e+007
    38	9.99911e+006	891.4	1e+007
    39	9.99906e+006	943.729	1e+007
    40	9.99907e+006	934.456	1e+007
    41	9.99909e+006	914.677	1e+007
    42	9.99909e+006	908.517	1e+007
    43	9.99909e+006	912.931	1e+007
    44	9.99909e+006	913.198	1e+007
    45	9.99909e+006	912.29	1e+007
    46	9.99908e+006	916.119	1e+007
    47	9.99908e+006	923.691	1e+007
    48	9.99909e+006	911.105	1e+007
    49	9.99907e+006	928.44	1e+007
    50	9.99908e+006	917.586	1e+007
    51	9.99908e+006	919.978	1e+007
    52	9.99908e+006	921.987	1e+007
    53	9.99908e+006	918.521	1e+007
    54	9.99906e+006	937.958	1e+007
    55	9.9991e+006	900.215	1e+007
    56	9.99908e+006	919.557	1e+007
    57	9.99907e+006	926.349	1e+007
    58	9.99909e+006	910.907	1e+007
    59	9.99908e+006	923.313	1e+007
    60	9.99909e+006	906.289	1e+007
    61	9.99905e+006	946.312	1e+007
    62	9.99908e+006	923.601	1e+007
    63	9.99905e+006	946.73	1e+007
    64	9.99904e+006	955.362	1e+007
    65	9.9991e+006	901.772	1e+007
    66	9.99906e+006	940.801	1e+007
    67	9.99908e+006	920.178	1e+007
    68	9.99907e+006	926.952	1e+007
    69	9.99907e+006	928.016	1e+007
    70	9.99911e+006	891.979	1e+007
    71	9.99906e+006	940.221	1e+007
    72	9.9991e+006	899.984	1e+007
    73	9.99907e+006	932.645	1e+007
    74	9.99909e+006	906.317	1e+007
    75	9.99909e+006	913.122	1e+007
    76	9.99909e+006	913.317	1e+007
    77	9.99909e+006	910.152	1e+007
    78	9.99908e+006	916.23	1e+007
    79	9.99911e+006	891.875	1e+007
    80	9.99909e+006	908.247	1e+007
    81	9.99908e+006	922.346	1e+007
    82	9.99909e+006	914.84	1e+007
    83	9.99909e+006	906.969	1e+007
    84	9.99907e+006	927.521	1e+007
    85	9.9991e+006	904.916	1e+007
    86	9.9991e+006	900.686	1e+007
    87	9.9991e+006	900.495	1e+007
    88	9.99909e+006	907.324	1e+007
    89	9.99911e+006	894.391	1e+007
    90	9.99907e+006	925.918	1e+007
    91	9.99908e+006	919.271	1e+007
    92	9.99908e+006	924.367	1e+007
    93	9.99905e+006	953.349	1e+007
    94	9.9991e+006	904.972	1e+007
    95	9.99907e+006	931.423	1e+007
    96	9.99907e+006	934.35	1e+007
    97	9.99908e+006	916.224	1e+007
    98	9.99911e+006	885.713	1e+007
    99	9.99909e+006	911.172	1e+007
   100	9.99907e+006	925.533	1e+007
   101	9.9991e+006	898.206	1e+007
   102	9.9991e+006	898.864	1e+007
   103	9.99906e+006	936.618	1e+007
   104	9.99909e+006	910.915	1e+007
   105	9.99907e+006	928.586	1e+007
   106	9.99908e+006	923.167	1e+007
   107	9.99908e+006	922.862	1e+007
   108	9.99909e+006	914.057	1e+007
   109	9.99907e+006	933.094	1e+007
   110	9.9991e+006	900.066	1e+007
   111	9.99909e+006	909.92	1e+007
   112	9.99909e+006	906.289	1e+007
   113	9.9991e+006	897.075	1e+007
   114	9.99906e+006	938.47	1e+007
   115	9.9991e+006	898.414	1e+007
   116	9.99906e+006	943.911	1e+007
   117	9.99908e+006	919.156	1e+007
   118	9.99909e+006	905.566	1e+007
   119	9.99905e+006	953.66	1e+007
   120	9.99907e+006	928.112	1e+007
   121	9.99907e+006	928.591	1e+007
   122	9.99907e+006	931.367	1e+007
   123	9.9991e+006	895.095	1e+007
   124	9.9991e+006	901.862	1e+007
   125	9.99907e+006	929.065	1e+007
   126	9.99906e+006	942.693	1e+007
   127	9.99906e+006	939.785	1e+007
   128	9.99907e+006	926.691	1e+007
   129	9.99906e+006	941.617	1e+007
   130	9.99906e+006	941.825	1e+007
   131	9.99911e+006	891.472	1e+007
   132	9.99908e+006	919.051	1e+007
   133	9.99908e+006	916.928	1e+007
   134	9.99907e+006	925.94	1e+007
   135	9.99905e+006	954.739	1e+007
   136	9.99906e+006	940.084	1e+007
   137	9.99908e+006	916.003	1e+007
   138	9.99908e+006	919.189	1e+007
   139	9.99904e+006	956.812	1e+007
   140	9.99909e+006	907.148	1e+007
   141	9.99911e+006	888.224	1e+007
   142	9.9991e+006	898.386	1e+007
   143	9.99905e+006	949.472	1e+007
   144	9.99909e+006	906.151	1e+007
   145	9.99908e+006	924.993	1e+007
   146	9.9991e+006	903.125	1e+007
   147	9.99908e+006	921.354	1e+007
   148	9.99909e+006	906.045	1e+007
   149	9.99906e+006	937.745	1e+007
   150	9.99906e+006	939.12	1e+007
   151	9.99908e+006	921.683	1e+007
   152	9.9991e+006	904.334	1e+007
   153	9.99909e+006	912.061	1e+007
   154	9.9991e+006	901.896	1e+007
   155	9.99908e+006	923.055	1e+007
   156	9.99907e+006	927.751	1e+007
   157	9.99908e+006	920.421	1e+007
   158	9.99909e+006	914.138	1e+007
   159	9.99909e+006	911.281	1e+007
   160	9.99908e+006	924.515	1e+007
   161	9.99907e+006	927.363	1e+007
   162	9.99908e+006	919.472	1e+007
   163	9.99907e+006	926.672	1e+007
   164	9.99911e+006	888.525	1e+007
   165	9.99906e+006	935.22	1e+007
   166	9.99907e+006	925.456	1e+007
   167	9.99909e+006	909.158	1e+007
   168	9.99906e+006	943.377	1e+007
   169	9.99907e+006	927.015	1e+007
   170	9.99909e+006	913.285	1e+007
   171	9.99909e+006	906.03	1e+007
   172	9.9991e+006	903.941	1e+007
   173	9.99907e+006	927.794	1e+007
   174	9.9991e+006	904.795	1e+007
   175	9.99908e+006	915.662	1e+007
   176	9.99907e+006	931.757	1e+007
   177	9.99908e+006	921.75	1e+007
   178	9.99908e+006	922.059	1e+007
   179	9.99905e+006	945.177	1e+007
   180	9.99908e+006	916.266	1e+007
   181	9.99909e+006	914.597	1e+007
   182	9.9991e+006	903.224	1e+007
   183	9.99911e+006	886.989	1e+007
   184	9.99909e+006	911.486	1e+007
   185	9.99908e+006	918.127	1e+007
   186	9.99907e+006	930.396	1e+007
   187	9.99907e+006	931.07	1e+007
   188	9.9991e+006	900.703	1e+007
   189	9.99907e+006	926.177	1e+007
   190	9.99907e+006	931.388	1e+007
   191	9.99908e+006	915.056	1e+007
   192	9.9991e+006	901.488	1e+007
   193	9.99906e+006	940.098	1e+007
   194	9.99909e+006	908.262	1e+007
   195	9.99908e+006	920.257	1e+007
   196	9.99909e+006	912.536	1e+007
   197	9.99907e+006	930.478	1e+007
   198	9.99904e+006	956.82	1e+007
   199	9.99908e+006	920.79	1e+007
   200	9.99906e+006	940.588	1e+007
   201	9.99908e+006	921.713	1e+007
   202	9.99909e+006	908.369	1e+007
   203	9.99906e+006	936.054	1e+007
   204	9.9991e+006	900.607	1e+007
   205	9.99909e+006	908.447	1e+007
   206	9.99908e+006	917.153	1e+007
   207	9.99907e+006	926.828	1e+007
   208	9.99906e+006	943.825	1e+007
   209	9.99906e+006	938.467	1e+007
   210	9.99906e+006	941.967	1e+007
   211	9.99909e+006	905.11	1e+007
   212	9.99909e+006	910.375	1e+007
   213	9.9991e+006	896.114	1e+007
   214	9.9991e+006	902.749	1e+007
   215	9.99906e+006	938.235	1e+007
   216	9.99908e+006	921.335	1e+007
   217	9.99906e+006	938.788	1e+007
   218	9.99909e+006	905.285	1e+007
   219	9.9991e+006	901.519	1e+007
   220	9.99909e+006	913.905	1e+007
   221	9.99909e+006	908.883	1e+007
   222	9.99909e+006	911.965	1e+007
   223	9.99908e+006	920.888	1e+007
   224	9.99906e+006	936.555	1e+007
   225	9.99909e+006	912.507	1e+007
   226	9.99907e+006	925.313	1e+007
   227	9.99908e+006	916.259	1e+007
   228	9.99911e+006	890.911	1e+007
   229	9.99909e+006	914.615	1e+007
   230	9.99911e+006	886.404	1e+007
   231	9.99907e+006	926.44	1e+007
   232	9.99906e+006	938.088	1e+007
   233	9.99908e+006	920.312	1e+007
   234	9.99906e+006	935.898	1e+007
   235	9.99908e+006	921.235	1e+007
   236	9.99908e+006	916.553	1e+007
   237	9.99908e+006	920.98	1e+007
   238	9.99907e+006	932.417	1e+007
   239	9.99905e+006	951.298	1e+007
   240	9.9991e+006	898.706	1e+007
   241	9.99909e+006	914.387	1e+007
   242	9.99907e+006	926.038	1e+007
   243	9.99909e+006	911.324	1e+007
   244	9.99908e+006	924.769	1e+007
   245	9.99905e+006	945.063	1e+007
   246	9.99907e+006	929.587	1e+007
   247	9.99907e+006	933.398	1e+007
   248	9.99908e+006	918.257	1e+007
   249	9.99908e+006	916.977	1e+007
   250	9.99907e+006	930.876	1e+007
   251	9.99909e+006	906.878	1e+007
   252	9.99909e+006	907.499	1e+007
   253	9.99911e+006	891.637	1e+007
   254	9.9991e+006	898.394	1e+007
   255	9.99911e+006	894.649	1e+007
   256	9.99911e+006	886.778	1e+007
   257	9.99906e+006	938.565	1e+007
   258	9.99909e+006	910.569	1e+007
   259	9.99907e+006	932.244	1e+007
   260	9.99905e+006	954.617	1e+007
   261	9.9991e+006	900.836	1e+007
   262	9.99905e+006	953.241	1e+007
   263	9.99908e+006	919.281	1e+007
   264	9.99908e+006	920.37	1e+007
   265	9.99906e+006	943.016	1e+007
   266	9.99908e+006	916.536	1e+007
   267	9.99907e+006	927.451	1e+007
   268	9.99909e+006	910.442	1e+007
   269	9.99907e+006	933.42	1e+007
   270	9.99909e+006	914.39	1e+007
   271	9.99907e+006	929.233	1e+007
   272	9.99908e+006	923.47	1e+007
   273	9.99911e+006	890.405	1e+007
   274	9.99909e+006	907.473	1e+007
   275	9.99908e+006	919.922	1e+007
   276	9.99908e+006	924.924	1e+007
   277	9.99907e+006	927.828	1e+007
   278	9.99911e+006	893.921	1e+007
   279	9.99908e+006	915.555	1e+007
   280	9.99911e+006	891.152	1e+007
   281	9.9991e+006	897.694	1e+007
   282	9.9991e+006	902.581	1e+007
   283	9.9991e+006	904.584	1e+007
   284	9.99906e+006	943.847	1e+007
   285	9.99911e+006	892.367	1e+007
   286	9.99907e+006	934.602	1e+007
   287	9.99908e+006	915.359	1e+007
   288	9.99908e+006	919.058	1e+007
   289	9.99906e+006	935.237	1e+007
   290	9.99908e+006	920.456	1e+007
   291	9.99908e+006	916.983	1e+007
   292	9.99908e+006	924.993	1e+007
   293	9.99908e+006	918.045	1e+007
   294	9.99906e+006	943.126	1e+007
   295	9.99906e+006	938.138	1e+007
   296	9.99911e+006	894.16	1e+007
   297	9.99909e+006	911.966	1e+007
   298	9.99911e+006	891.954	1e+007
   299	9.99906e+006	938.974	1e+007
   300	9.99909e+006	909.805	1e+007
   301	9.9991e+006	895.692	1e+007
   302	9.99909e+006	906.916	1e+007
   303	9.99905e+006	946.654	1e+007
   304	9.99907e+006	930.754	1e+007
   305	9.99909e+006	907.825	1e+007
   306	9.9991e+006	896.741	1e+007
   307	9.99909e+006	910.393	1e+007
   308	9.99908e+006	921.881	1e+007
   309	9.99906e+006	936.594	1e+007
   310	9.99909e+006	914.589	1e+007
   311	9.99907e+006	933.903	1e+007
   312	9.99905e+006	949.108	1e+007
   313	9.9991e+006	895.359	1e+007
   314	9.99908e+006	923.173	1e+007
   315	9.99908e+006	920.131	1e+007
   316	9.99907e+006	929.472	1e+007
   317	9.99911e+006	885.963	1e+007
   318	9.99906e+006	937.213	1e+007
   319	9.9991e+006	900.067	1e+007
   320	9.99911e+006	892.426	1e+007
   321	9.99906e+006	935.55	1e+007
   322	9.9991e+006	901.178	1e+007
   323	9.99909e+006	906.708	1e+007
   324	9.99911e+006	893.267	1e+007
   325	9.99907e+006	926.366	1e+007
   326	9.99907e+006	932.49	1e+007
   327	9.99908e+006	921.977	1e+007
   328	9.99907e+006	932.751	1e+007
   329	9.99908e+006	916.602	1e+007
   330	9.9991e+006	902.443	1e+007
   331	9.99907e+006	927.018	1e+007
   332	9.99905e+006	954.61	1e+007
   333	9.99908e+006	917.938	1e+007
   334	9.99909e+006	913.741	1e+007
   335	9.99908e+006	915.993	1e+007
   336	9.99906e+006	940.077	1e+007
   337	9.99908e+006	915.247	1e+007
   338	9.99911e+006	889.997	1e+007
   339	9.99905e+006	953.027	1e+007
   340	9.99907e+006	928.704	1e+007
   341	9.9991e+006	898.683	1e+007
   342	9.9991e+006	901.446	1e+007
   343	9.99912e+006	879.906	1e+007
   344	9.99908e+006	920.616	1e+007
   345	9.99906e+006	939.454	1e+007
   346	9.9991e+006	902.622	1e+007
   347	9.9991e+006	900.446	1e+007
   348	9.99908e+006	920.985	1e+007
   349	9.99908e+006	916.969	1e+007
   350	9.99908e+006	921.774	1e+007
   351	9.99906e+006	942.942	1e+007
   352	9.99907e+006	934.804	1e+007
   353	9.99907e+006	928.595	1e+007
   354	9.99908e+006	916.727	1e+007
   355	9.99908e+006	919.16	1e+007
   356	9.99911e+006	893.742	1e+007
   357	9.9991e+006	897.257	1e+007
   358	9.99908e+006	923.242	1e+007
   359	9.99907e+006	932.144	1e+007
   360	9.99908e+006	922.691	1e+007
   361	9.99909e+006	911.611	1e+007
   362	9.99908e+006	915.868	1e+007
   363	9.99909e+006	906.712	1e+007
   364	9.99909e+006	911.115	1e+007
   365	9.99906e+006	940.673	1e+007
   366	9.99906e+006	944.596	1e+007
   367	9.99909e+006	908.219	1e+007
   368	9.9991e+006	903.832	1e+007
   369	9.9991e+006	898.276	1e+007
   370	9.99906e+006	940.673	1e+007
   371	9.99909e+006	914.801	1e+007
   372	9.99909e+006	911.93	1e+007
   373	9.99907e+006	932.767	1e+007
   374	9.9991e+006	900.164	1e+007
   375	9.99908e+006	915.39	1e+007
   376	9.99908e+006	923.659	1e+007
   377	9.99909e+006	911.435	1e+007
   378	9.99906e+006	939.703	1e+007
   379	9.99907e+006	930.142	1e+007
   380	9.99908e+006	922.555	1e+007
   381	9.99909e+006	905.303	1e+007
   382	9.99906e+006	935.965	1e+007
   383	9.99909e+006	906.736	1e+007
   384	9.99908e+006	921.949	1e+007
   385	9.99906e+006	936.447	1e+007
   386	9.99909e+006	911.616	1e+007
   387	9.9991e+006	896.415	1e+007
   388	9.99906e+006	941.435	1e+007
   389	9.99907e+006	934.92	1e+007
   390	9.99909e+006	914.595	1e+007
   391	9.99907e+006	928.361	1e+007
   392	9.9991e+006	902.812	1e+007
   393	9.99908e+006	917.024	1e+007
   394	9.99906e+006	943.273	1e+007
   395	9.9991e+006	902.425	1e+007
   396	9.99908e+006	917.079	1e+007
   397	9.99906e+006	944.576	1e+007
   398	9.99907e+006	928.59	1e+007
   399	9.99904e+006	955.852	1e+007
   400	9.99907e+006	927.731	1e+007
   401	9.99909e+006	905.716	1e+007
   402	9.99907e+006	929.255	1e+007
   403	9.9991e+006	898.563	1e+007
   404	9.9991e+006	895.416	1e+007
   405	9.99909e+006	910.584	1e+007
   406	9.99909e+006	910.408	1e+007
   407	9.99908e+006	923.593	1e+007
   408	9.99905e+006	954.158	1e+007
   409	9.99909e+006	908.011	1e+007
   410	9.99905e+006	949.605	1e+007
   411	9.9991e+006	895.976	1e+007
   412	9.99909e+006	914.853	1e+007
   413	9.99908e+006	915.989	1e+007
   414	9.99904e+006	958.482	1e+007
   415	9.99908e+006	916.797	1e+007
   416	9.99906e+006	942.157	1e+007
   417	9.99907e+006	926.413	1e+007
   418	9.99908e+006	922.798	1e+007
   419	9.99908e+006	918.821	1e+007
   420	9.99905e+006	950.283	1e+007
   421	9.99907e+006	927.406	1e+007
   422	9.99909e+006	909.991	1e+007
   423	9.99911e+006	885.775	1e+007
   424	9.99907e+006	929.804	1e+007
   425	9.99908e+006	919.648	1e+007
   426	9.99909e+006	910.803	1e+007
   427	9.99908e+006	915.243	1e+007
   428	9.99912e+006	881.792	1e+007
   429	9.99907e+006	926.45	1e+007
   430	9.99907e+006	927.67	1e+007
   431	9.99906e+006	936.404	1e+007
   432	9.99911e+006	893.486	1e+007
   433	9.99909e+006	910.717	1e+007
   434	9.99909e+006	914.139	1e+007
   435	9.99908e+006	924.531	1e+007
   436	9.99907e+006	933.722	1e+007
   437	9.99906e+006	937.457	1e+007
   438	9.9991e+006	897.19	1e+007
   439	9.99908e+006	920.142	1e+007
   440	9.99907e+006	926.713	1e+007
   441	9.99906e+006	944.624	1e+007
   442	9.99908e+006	924.835	1e+007
   443	9.99909e+006	913.254	1e+007
   444	9.9991e+006	902.147	1e+007
   445	9.9991e+006	895.456	1e+007
   446	9.99909e+006	912.91	1e+007
   447	9.99906e+006	940.661	1e+007
   448	9.99905e+006	947.686	1e+007
   449	9.9991e+006	899.692	1e+007
   450	9.99906e+006	940.272	1e+007
   451	9.99909e+006	912.478	1e+007
   452	9.99906e+006	944.126	1e+007
   453	9.99905e+006	951.748	1e+007
   454	9.99908e+006	915.365	1e+007
   455	9.99905e+006	947.805	1e+007
   456	9.99907e+006	929.822	1e+007
   457	9.99907e+006	930.32	1e+007
   458	9.99908e+006	917.579	1e+007
   459	9.99908e+006	919.035	1e+007
   460	9.9991e+006	903.351	1e+007
   461	9.99911e+006	887.474	1e+007
   462	9.99909e+006	910.465	1e+007
   463	9.99909e+006	913.702	1e+007
   464	9.99905e+006	949.955	1e+007
   465	9.99909e+006	912.102	1e+007
   466	9.99909e+006	907.606	1e+007
   467	9.99905e+006	949.255	1e+007
   468	9.99907e+006	930.17	1e+007
   469	9.99909e+006	910.388	1e+007
   470	9.99909e+006	907.013	1e+007
   471	9.99906e+006	941.13	1e+007
   472	9.99907e+006	927.838	1e+007
   473	9.99905e+006	950.953	1e+007
   474	9.9991e+006	897.916	1e+007
   475	9.99906e+006	939.565	1e+007
   476	9.99909e+006	910.145	1e+007
   477	9.99911e+006	893.49	1e+007
   478	9.9991e+006	902.592	1e+007
   479	9.99908e+006	921.953	1e+007
   480	9.99909e+006	914.427	1e+007
   481	9.99906e+006	941.451	1e+007
   482	9.99908e+006	923.073	1e+007
   483	9.99906e+006	941.523	1e+007
   484	9.99907e+006	927.358	1e+007
   485	9.99908e+006	920.867	1e+007
   486	9.9991e+006	898.228	1e+007
   487	9.99909e+006	908.233	1e+007
   488	9.99908e+006	915.382	1e+007
   489	9.99909e+006	912.403	1e+007
   490	9.99907e+006	932.43	1e+007
   491	9.9991e+006	904.165	1e+007
   492	9.99906e+006	935.818	1e+007
   493	9.9991e+006	903.86	1e+007
   494	9.99906e+006	940.884	1e+007
   495	9.99909e+006	912.673	1e+007
   496	9.99906e+006	939.136	1e+007
   497	9.9991e+006	901.216	1e+007
   498	9.99907e+006	928.521	1e+007
   499	9.9991e+006	901.644	1e+007
   500	9.99909e+006	905.719	1e+007


Date: Tue Apr 17 21:15:26 2018
Total elapsed time: 3.254 seconds.

tnom = 27
temp = 27
method = trap
totiter = 0
traniter = 0
tranpoints = 0
accept = 0
rejected = 0
matrix size = 11
fillins = 5
solver = Normal

