Circuit: * H:\googleDriver\ENC\8th Semester\Aquisição de Sinais\Relátorio Amplificador inversor e não-inversor\ltinversora.asc

Direct Newton iteration for .op point succeeded.

Date: Sun Mar 25 10:03:11 2018
Total elapsed time: 0.044 seconds.

tnom = 27
temp = 27
method = trap
totiter = 3
traniter = 0
tranpoints = 0
accept = 0
rejected = 0
matrix size = 5
fillins = 0
solver = Normal
Matrix Compiler1: 150 bytes object code size
Matrix Compiler2: 315 bytes object code size
