Circuit: .lib C:\users\francisco\My Documents\LTspiceXVII\lib\cmp\standard.mos

Direct Newton iteration for .op point succeeded.

gain1hz: v(out)=(129.202dB,-89.9092°) at 1


Date: Fri Jun 23 00:56:26 2017
Total elapsed time: 0.010 seconds.

tnom = 27
temp = 27
method = trap
totiter = 26
traniter = 0
tranpoints = 0
accept = 0
rejected = 0
matrix size = 11
fillins = 2
solver = Normal
Matrix Compiler1:      38 opcodes
Matrix Compiler2: 1003 bytes object code size

