Circuit: * Z:\home\francisco\Files\College-UFSC\6th semestre\Tópicos Especiais I -Microeletronica\Trabalho 2 - Pequenos Sinais\Parte 3\Parte3.asc


Date: Thu Apr 06 00:39:12 2017
Total elapsed time: 0.167 seconds.

tnom = 27
temp = 27
method = trap
totiter = 1025
traniter = 0
tranpoints = 0
accept = 0
rejected = 0
matrix size = 6
fillins = 0
solver = Normal
Matrix Compiler1:      11 opcodes  0.8/[0.8]/0.9
Matrix Compiler2: off  [0.9]/1.1/1.0


