Circuit: * C:\Users\Matheus\Desktop\Topicos I\Trabalho 2 - Pequenos Sinais\Parte 3\Trabalho2.asc


Date: Wed Apr 05 17:34:46 2017
Total elapsed time: 0.063 seconds.

tnom = 27
temp = 27
method = trap
totiter = 1025
traniter = 0
tranpoints = 0
accept = 0
rejected = 0
matrix size = 6
fillins = 0
solver = Normal
Matrix Compiler1: 182 bytes object code size  0.1/0.1/[0.0]
Matrix Compiler2: 408 bytes object code size  0.1/0.1/[0.1]


