Circuit: * C:\Users\Matheus\Desktop\Topicos I\Parte 2\ck.asc


Date: Thu Mar 30 13:06:05 2017
Total elapsed time: 0.112 seconds.

tnom = 27
temp = 27
method = trap
totiter = 407
traniter = 0
tranpoints = 0
accept = 0
rejected = 0
matrix size = 5
fillins = 0
solver = Normal
Matrix Compiler1: 204 bytes object code size  0.1/0.0/[0.0]
Matrix Compiler2: off  [0.0]/0.1/0.1


