Circuit: * C:\Users\Matheus\Desktop\Topicos I\Trabalho 2 - Pequenos Sinais\Parte 4\Parte4.asc


Date: Wed Apr 05 19:24:27 2017
Total elapsed time: 0.111 seconds.

tnom = 27
temp = 27
method = trap
totiter = 1007
traniter = 0
tranpoints = 0
accept = 0
rejected = 0
matrix size = 6
fillins = 0
solver = Normal
Matrix Compiler1: 182 bytes object code size  0.1/0.0/[0.0]
Matrix Compiler2: 408 bytes object code size  0.1/0.1/[0.0]


