Circuit: * Z:\home\francisco\Files\College-UFSC\6th semestre\Tópicos Especiais I -Microeletronica\Trabalho 2 - Pequenos Sinais\Parte 6\Draft3.asc

Direct Newton iteration for .op point succeeded.

Date: Sat Apr 22 19:20:35 2017
Total elapsed time: 0.066 seconds.

tnom = 27
temp = 27
method = modified trap
totiter = 2099
traniter = 2096
tranpoints = 1049
accept = 1049
rejected = 0
matrix size = 3
fillins = 0
solver = Normal
Matrix Compiler1: 50 bytes object code size  0.4/0.4/[0.4]
Matrix Compiler2: off  [0.4]/0.4/0.4


