Circuit: * Z:\home\francisco\Files\College-UFSC\6th semester\Tópicos Especiais I -Microeletronica\Trabalho-6 Amplificadores\Trabalho Final- Otimização Cicruito Amplificador de 2 eságios\otimização.asc

Direct Newton iteration failed to find .op point.  (Use ".option noopiter" to skip.)
Starting Gmin stepping
Gmin = 10
Gmin = 1.07374
Gmin = 0.115292
Gmin = 0.0123794
Gmin = 0.00132923
Gmin = 0.000142725
Gmin = 1.5325e-005
Gmin = 1.6455e-006
Gmin = 1.76685e-007
Gmin = 1.89714e-008
Gmin = 2.03704e-009
Gmin = 2.18725e-010
Gmin = 2.34854e-011
Gmin = 2.52173e-012
Gmin = 2.70769e-013
Gmin = 0
Gmin stepping succeeded in finding the operating point.


gain1hz: v(out)=(73.2127dB,-84.8223°) at 1


Date: Wed Jun 28 11:14:33 2017
Total elapsed time: 0.330 seconds.

tnom = 27
temp = 27
method = trap
totiter = 568
traniter = 0
tranpoints = 0
accept = 0
rejected = 0
matrix size = 11
fillins = 3
solver = Normal
Matrix Compiler1:      41 opcodes
Matrix Compiler2:      78 opcodes  0.8/[0.6]/1.2


